Version 4
SHEET 1 2916 2224
WIRE 48 -2896 -16 -2896
WIRE 144 -2896 48 -2896
WIRE 256 -2896 144 -2896
WIRE 352 -2896 256 -2896
WIRE 848 -2896 432 -2896
WIRE 960 -2896 848 -2896
WIRE 1056 -2896 960 -2896
WIRE 1120 -2896 1056 -2896
WIRE 1408 -2896 1344 -2896
WIRE 1504 -2896 1408 -2896
WIRE 1616 -2896 1504 -2896
WIRE 1712 -2896 1616 -2896
WIRE 2208 -2896 1792 -2896
WIRE 2320 -2896 2208 -2896
WIRE 2416 -2896 2320 -2896
WIRE 2480 -2896 2416 -2896
WIRE 848 -2864 848 -2896
WIRE 1120 -2864 1120 -2896
WIRE 2208 -2864 2208 -2896
WIRE 2480 -2864 2480 -2896
WIRE -16 -2848 -16 -2896
WIRE 48 -2848 48 -2896
WIRE 144 -2848 144 -2896
WIRE 256 -2848 256 -2896
WIRE 960 -2848 960 -2896
WIRE 1056 -2848 1056 -2896
WIRE 1344 -2848 1344 -2896
WIRE 1408 -2848 1408 -2896
WIRE 1504 -2848 1504 -2896
WIRE 1616 -2848 1616 -2896
WIRE 2320 -2848 2320 -2896
WIRE 2416 -2848 2416 -2896
WIRE -16 -2736 -16 -2768
WIRE 48 -2736 48 -2784
WIRE 48 -2736 -16 -2736
WIRE 144 -2736 144 -2784
WIRE 144 -2736 48 -2736
WIRE 256 -2736 256 -2768
WIRE 256 -2736 144 -2736
WIRE 464 -2736 256 -2736
WIRE 672 -2736 576 -2736
WIRE 848 -2736 848 -2784
WIRE 848 -2736 752 -2736
WIRE 960 -2736 960 -2784
WIRE 960 -2736 848 -2736
WIRE 1056 -2736 1056 -2784
WIRE 1056 -2736 960 -2736
WIRE 1120 -2736 1120 -2784
WIRE 1120 -2736 1056 -2736
WIRE 1344 -2736 1344 -2768
WIRE 1408 -2736 1408 -2784
WIRE 1408 -2736 1344 -2736
WIRE 1504 -2736 1504 -2784
WIRE 1504 -2736 1408 -2736
WIRE 1616 -2736 1616 -2768
WIRE 1616 -2736 1504 -2736
WIRE 1824 -2736 1616 -2736
WIRE 2032 -2736 1936 -2736
WIRE 2208 -2736 2208 -2784
WIRE 2208 -2736 2112 -2736
WIRE 2320 -2736 2320 -2784
WIRE 2320 -2736 2208 -2736
WIRE 2416 -2736 2416 -2784
WIRE 2416 -2736 2320 -2736
WIRE 2480 -2736 2480 -2784
WIRE 2480 -2736 2416 -2736
WIRE 48 -2672 -16 -2672
WIRE 144 -2672 48 -2672
WIRE 256 -2672 144 -2672
WIRE 352 -2672 256 -2672
WIRE 464 -2672 464 -2736
WIRE 464 -2672 432 -2672
WIRE 576 -2672 576 -2736
WIRE 848 -2672 576 -2672
WIRE 960 -2672 848 -2672
WIRE 1056 -2672 960 -2672
WIRE 1120 -2672 1056 -2672
WIRE 1408 -2672 1344 -2672
WIRE 1504 -2672 1408 -2672
WIRE 1616 -2672 1504 -2672
WIRE 1712 -2672 1616 -2672
WIRE 1824 -2672 1824 -2736
WIRE 1824 -2672 1792 -2672
WIRE 1936 -2672 1936 -2736
WIRE 2208 -2672 1936 -2672
WIRE 2320 -2672 2208 -2672
WIRE 2416 -2672 2320 -2672
WIRE 2480 -2672 2416 -2672
WIRE 848 -2640 848 -2672
WIRE 1120 -2640 1120 -2672
WIRE 2208 -2640 2208 -2672
WIRE 2480 -2640 2480 -2672
WIRE -16 -2624 -16 -2672
WIRE 48 -2624 48 -2672
WIRE 144 -2624 144 -2672
WIRE 256 -2624 256 -2672
WIRE 960 -2624 960 -2672
WIRE 1056 -2624 1056 -2672
WIRE 1344 -2624 1344 -2672
WIRE 1408 -2624 1408 -2672
WIRE 1504 -2624 1504 -2672
WIRE 1616 -2624 1616 -2672
WIRE 2320 -2624 2320 -2672
WIRE 2416 -2624 2416 -2672
WIRE -16 -2512 -16 -2544
WIRE 48 -2512 48 -2560
WIRE 48 -2512 -16 -2512
WIRE 144 -2512 144 -2560
WIRE 144 -2512 48 -2512
WIRE 256 -2512 256 -2544
WIRE 256 -2512 144 -2512
WIRE 464 -2512 256 -2512
WIRE 672 -2512 576 -2512
WIRE 848 -2512 848 -2560
WIRE 848 -2512 752 -2512
WIRE 960 -2512 960 -2560
WIRE 960 -2512 848 -2512
WIRE 1056 -2512 1056 -2560
WIRE 1056 -2512 960 -2512
WIRE 1120 -2512 1120 -2560
WIRE 1120 -2512 1056 -2512
WIRE 1344 -2512 1344 -2544
WIRE 1408 -2512 1408 -2560
WIRE 1408 -2512 1344 -2512
WIRE 1504 -2512 1504 -2560
WIRE 1504 -2512 1408 -2512
WIRE 1616 -2512 1616 -2544
WIRE 1616 -2512 1504 -2512
WIRE 1824 -2512 1616 -2512
WIRE 2032 -2512 1936 -2512
WIRE 2208 -2512 2208 -2560
WIRE 2208 -2512 2112 -2512
WIRE 2320 -2512 2320 -2560
WIRE 2320 -2512 2208 -2512
WIRE 2416 -2512 2416 -2560
WIRE 2416 -2512 2320 -2512
WIRE 2480 -2512 2480 -2560
WIRE 2480 -2512 2416 -2512
WIRE 48 -2448 -16 -2448
WIRE 144 -2448 48 -2448
WIRE 256 -2448 144 -2448
WIRE 352 -2448 256 -2448
WIRE 464 -2448 464 -2512
WIRE 464 -2448 432 -2448
WIRE 576 -2448 576 -2512
WIRE 848 -2448 576 -2448
WIRE 960 -2448 848 -2448
WIRE 1056 -2448 960 -2448
WIRE 1120 -2448 1056 -2448
WIRE 1408 -2448 1344 -2448
WIRE 1504 -2448 1408 -2448
WIRE 1616 -2448 1504 -2448
WIRE 1712 -2448 1616 -2448
WIRE 1824 -2448 1824 -2512
WIRE 1824 -2448 1792 -2448
WIRE 1936 -2448 1936 -2512
WIRE 2208 -2448 1936 -2448
WIRE 2320 -2448 2208 -2448
WIRE 2416 -2448 2320 -2448
WIRE 2480 -2448 2416 -2448
WIRE 848 -2416 848 -2448
WIRE 1120 -2416 1120 -2448
WIRE 2208 -2416 2208 -2448
WIRE 2480 -2416 2480 -2448
WIRE -16 -2400 -16 -2448
WIRE 48 -2400 48 -2448
WIRE 144 -2400 144 -2448
WIRE 256 -2400 256 -2448
WIRE 960 -2400 960 -2448
WIRE 1056 -2400 1056 -2448
WIRE 1344 -2400 1344 -2448
WIRE 1408 -2400 1408 -2448
WIRE 1504 -2400 1504 -2448
WIRE 1616 -2400 1616 -2448
WIRE 2320 -2400 2320 -2448
WIRE 2416 -2400 2416 -2448
WIRE -16 -2288 -16 -2320
WIRE 48 -2288 48 -2336
WIRE 48 -2288 -16 -2288
WIRE 144 -2288 144 -2336
WIRE 144 -2288 48 -2288
WIRE 256 -2288 256 -2320
WIRE 256 -2288 144 -2288
WIRE 464 -2288 256 -2288
WIRE 672 -2288 576 -2288
WIRE 848 -2288 848 -2336
WIRE 848 -2288 752 -2288
WIRE 960 -2288 960 -2336
WIRE 960 -2288 848 -2288
WIRE 1056 -2288 1056 -2336
WIRE 1056 -2288 960 -2288
WIRE 1120 -2288 1120 -2336
WIRE 1120 -2288 1056 -2288
WIRE 1344 -2288 1344 -2320
WIRE 1408 -2288 1408 -2336
WIRE 1408 -2288 1344 -2288
WIRE 1504 -2288 1504 -2336
WIRE 1504 -2288 1408 -2288
WIRE 1616 -2288 1616 -2320
WIRE 1616 -2288 1504 -2288
WIRE 1824 -2288 1616 -2288
WIRE 2032 -2288 1936 -2288
WIRE 2208 -2288 2208 -2336
WIRE 2208 -2288 2112 -2288
WIRE 2320 -2288 2320 -2336
WIRE 2320 -2288 2208 -2288
WIRE 2416 -2288 2416 -2336
WIRE 2416 -2288 2320 -2288
WIRE 2480 -2288 2480 -2336
WIRE 2480 -2288 2416 -2288
WIRE 48 -2224 -16 -2224
WIRE 144 -2224 48 -2224
WIRE 256 -2224 144 -2224
WIRE 352 -2224 256 -2224
WIRE 464 -2224 464 -2288
WIRE 464 -2224 432 -2224
WIRE 576 -2224 576 -2288
WIRE 848 -2224 576 -2224
WIRE 960 -2224 848 -2224
WIRE 1056 -2224 960 -2224
WIRE 1120 -2224 1056 -2224
WIRE 1408 -2224 1344 -2224
WIRE 1504 -2224 1408 -2224
WIRE 1616 -2224 1504 -2224
WIRE 1712 -2224 1616 -2224
WIRE 1824 -2224 1824 -2288
WIRE 1824 -2224 1792 -2224
WIRE 1936 -2224 1936 -2288
WIRE 2208 -2224 1936 -2224
WIRE 2320 -2224 2208 -2224
WIRE 2416 -2224 2320 -2224
WIRE 2480 -2224 2416 -2224
WIRE 848 -2192 848 -2224
WIRE 1120 -2192 1120 -2224
WIRE 2208 -2192 2208 -2224
WIRE 2480 -2192 2480 -2224
WIRE -16 -2176 -16 -2224
WIRE 48 -2176 48 -2224
WIRE 144 -2176 144 -2224
WIRE 256 -2176 256 -2224
WIRE 960 -2176 960 -2224
WIRE 1056 -2176 1056 -2224
WIRE 1344 -2176 1344 -2224
WIRE 1408 -2176 1408 -2224
WIRE 1504 -2176 1504 -2224
WIRE 1616 -2176 1616 -2224
WIRE 2320 -2176 2320 -2224
WIRE 2416 -2176 2416 -2224
WIRE -16 -2064 -16 -2096
WIRE 48 -2064 48 -2112
WIRE 48 -2064 -16 -2064
WIRE 144 -2064 144 -2112
WIRE 144 -2064 48 -2064
WIRE 256 -2064 256 -2096
WIRE 256 -2064 144 -2064
WIRE 464 -2064 256 -2064
WIRE 672 -2064 576 -2064
WIRE 848 -2064 848 -2112
WIRE 848 -2064 752 -2064
WIRE 960 -2064 960 -2112
WIRE 960 -2064 848 -2064
WIRE 1056 -2064 1056 -2112
WIRE 1056 -2064 960 -2064
WIRE 1120 -2064 1120 -2112
WIRE 1120 -2064 1056 -2064
WIRE 1344 -2064 1344 -2096
WIRE 1408 -2064 1408 -2112
WIRE 1408 -2064 1344 -2064
WIRE 1504 -2064 1504 -2112
WIRE 1504 -2064 1408 -2064
WIRE 1616 -2064 1616 -2096
WIRE 1616 -2064 1504 -2064
WIRE 1824 -2064 1616 -2064
WIRE 2032 -2064 1936 -2064
WIRE 2208 -2064 2208 -2112
WIRE 2208 -2064 2112 -2064
WIRE 2320 -2064 2320 -2112
WIRE 2320 -2064 2208 -2064
WIRE 2416 -2064 2416 -2112
WIRE 2416 -2064 2320 -2064
WIRE 2480 -2064 2480 -2112
WIRE 2480 -2064 2416 -2064
WIRE 48 -2000 -16 -2000
WIRE 144 -2000 48 -2000
WIRE 256 -2000 144 -2000
WIRE 352 -2000 256 -2000
WIRE 464 -2000 464 -2064
WIRE 464 -2000 432 -2000
WIRE 576 -2000 576 -2064
WIRE 848 -2000 576 -2000
WIRE 960 -2000 848 -2000
WIRE 1056 -2000 960 -2000
WIRE 1120 -2000 1056 -2000
WIRE 1408 -2000 1344 -2000
WIRE 1504 -2000 1408 -2000
WIRE 1616 -2000 1504 -2000
WIRE 1712 -2000 1616 -2000
WIRE 1824 -2000 1824 -2064
WIRE 1824 -2000 1792 -2000
WIRE 1936 -2000 1936 -2064
WIRE 2208 -2000 1936 -2000
WIRE 2320 -2000 2208 -2000
WIRE 2416 -2000 2320 -2000
WIRE 2480 -2000 2416 -2000
WIRE 848 -1968 848 -2000
WIRE 1120 -1968 1120 -2000
WIRE 2208 -1968 2208 -2000
WIRE 2480 -1968 2480 -2000
WIRE -16 -1952 -16 -2000
WIRE 48 -1952 48 -2000
WIRE 144 -1952 144 -2000
WIRE 256 -1952 256 -2000
WIRE 960 -1952 960 -2000
WIRE 1056 -1952 1056 -2000
WIRE 1344 -1952 1344 -2000
WIRE 1408 -1952 1408 -2000
WIRE 1504 -1952 1504 -2000
WIRE 1616 -1952 1616 -2000
WIRE 2320 -1952 2320 -2000
WIRE 2416 -1952 2416 -2000
WIRE -16 -1840 -16 -1872
WIRE 48 -1840 48 -1888
WIRE 48 -1840 -16 -1840
WIRE 144 -1840 144 -1888
WIRE 144 -1840 48 -1840
WIRE 256 -1840 256 -1872
WIRE 256 -1840 144 -1840
WIRE 464 -1840 256 -1840
WIRE 672 -1840 576 -1840
WIRE 848 -1840 848 -1888
WIRE 848 -1840 752 -1840
WIRE 960 -1840 960 -1888
WIRE 960 -1840 848 -1840
WIRE 1056 -1840 1056 -1888
WIRE 1056 -1840 960 -1840
WIRE 1120 -1840 1120 -1888
WIRE 1120 -1840 1056 -1840
WIRE 1344 -1840 1344 -1872
WIRE 1408 -1840 1408 -1888
WIRE 1408 -1840 1344 -1840
WIRE 1504 -1840 1504 -1888
WIRE 1504 -1840 1408 -1840
WIRE 1616 -1840 1616 -1872
WIRE 1616 -1840 1504 -1840
WIRE 1824 -1840 1616 -1840
WIRE 2032 -1840 1936 -1840
WIRE 2208 -1840 2208 -1888
WIRE 2208 -1840 2112 -1840
WIRE 2320 -1840 2320 -1888
WIRE 2320 -1840 2208 -1840
WIRE 2416 -1840 2416 -1888
WIRE 2416 -1840 2320 -1840
WIRE 2480 -1840 2480 -1888
WIRE 2480 -1840 2416 -1840
WIRE 48 -1776 -16 -1776
WIRE 144 -1776 48 -1776
WIRE 256 -1776 144 -1776
WIRE 352 -1776 256 -1776
WIRE 464 -1776 464 -1840
WIRE 464 -1776 432 -1776
WIRE 576 -1776 576 -1840
WIRE 848 -1776 576 -1776
WIRE 960 -1776 848 -1776
WIRE 1056 -1776 960 -1776
WIRE 1120 -1776 1056 -1776
WIRE 1408 -1776 1344 -1776
WIRE 1504 -1776 1408 -1776
WIRE 1616 -1776 1504 -1776
WIRE 1712 -1776 1616 -1776
WIRE 1824 -1776 1824 -1840
WIRE 1824 -1776 1792 -1776
WIRE 1936 -1776 1936 -1840
WIRE 2208 -1776 1936 -1776
WIRE 2320 -1776 2208 -1776
WIRE 2416 -1776 2320 -1776
WIRE 2480 -1776 2416 -1776
WIRE 848 -1744 848 -1776
WIRE 1120 -1744 1120 -1776
WIRE 2208 -1744 2208 -1776
WIRE 2480 -1744 2480 -1776
WIRE -16 -1728 -16 -1776
WIRE 48 -1728 48 -1776
WIRE 144 -1728 144 -1776
WIRE 256 -1728 256 -1776
WIRE 960 -1728 960 -1776
WIRE 1056 -1728 1056 -1776
WIRE 1344 -1728 1344 -1776
WIRE 1408 -1728 1408 -1776
WIRE 1504 -1728 1504 -1776
WIRE 1616 -1728 1616 -1776
WIRE 2320 -1728 2320 -1776
WIRE 2416 -1728 2416 -1776
WIRE -16 -1616 -16 -1648
WIRE 48 -1616 48 -1664
WIRE 48 -1616 -16 -1616
WIRE 144 -1616 144 -1664
WIRE 144 -1616 48 -1616
WIRE 256 -1616 256 -1648
WIRE 256 -1616 144 -1616
WIRE 464 -1616 256 -1616
WIRE 672 -1616 576 -1616
WIRE 848 -1616 848 -1664
WIRE 848 -1616 752 -1616
WIRE 960 -1616 960 -1664
WIRE 960 -1616 848 -1616
WIRE 1056 -1616 1056 -1664
WIRE 1056 -1616 960 -1616
WIRE 1120 -1616 1120 -1664
WIRE 1120 -1616 1056 -1616
WIRE 1344 -1616 1344 -1648
WIRE 1408 -1616 1408 -1664
WIRE 1408 -1616 1344 -1616
WIRE 1504 -1616 1504 -1664
WIRE 1504 -1616 1408 -1616
WIRE 1616 -1616 1616 -1648
WIRE 1616 -1616 1504 -1616
WIRE 1824 -1616 1616 -1616
WIRE 2032 -1616 1936 -1616
WIRE 2208 -1616 2208 -1664
WIRE 2208 -1616 2112 -1616
WIRE 2320 -1616 2320 -1664
WIRE 2320 -1616 2208 -1616
WIRE 2416 -1616 2416 -1664
WIRE 2416 -1616 2320 -1616
WIRE 2480 -1616 2480 -1664
WIRE 2480 -1616 2416 -1616
WIRE 48 -1552 -16 -1552
WIRE 144 -1552 48 -1552
WIRE 256 -1552 144 -1552
WIRE 352 -1552 256 -1552
WIRE 464 -1552 464 -1616
WIRE 464 -1552 432 -1552
WIRE 576 -1552 576 -1616
WIRE 848 -1552 576 -1552
WIRE 960 -1552 848 -1552
WIRE 1056 -1552 960 -1552
WIRE 1120 -1552 1056 -1552
WIRE 1408 -1552 1344 -1552
WIRE 1504 -1552 1408 -1552
WIRE 1616 -1552 1504 -1552
WIRE 1712 -1552 1616 -1552
WIRE 1824 -1552 1824 -1616
WIRE 1824 -1552 1792 -1552
WIRE 1936 -1552 1936 -1616
WIRE 2208 -1552 1936 -1552
WIRE 2320 -1552 2208 -1552
WIRE 2416 -1552 2320 -1552
WIRE 2480 -1552 2416 -1552
WIRE 848 -1520 848 -1552
WIRE 1120 -1520 1120 -1552
WIRE 2208 -1520 2208 -1552
WIRE 2480 -1520 2480 -1552
WIRE -16 -1504 -16 -1552
WIRE 48 -1504 48 -1552
WIRE 144 -1504 144 -1552
WIRE 256 -1504 256 -1552
WIRE 960 -1504 960 -1552
WIRE 1056 -1504 1056 -1552
WIRE 1344 -1504 1344 -1552
WIRE 1408 -1504 1408 -1552
WIRE 1504 -1504 1504 -1552
WIRE 1616 -1504 1616 -1552
WIRE 2320 -1504 2320 -1552
WIRE 2416 -1504 2416 -1552
WIRE -16 -1392 -16 -1424
WIRE 48 -1392 48 -1440
WIRE 48 -1392 -16 -1392
WIRE 144 -1392 144 -1440
WIRE 144 -1392 48 -1392
WIRE 256 -1392 256 -1424
WIRE 256 -1392 144 -1392
WIRE 464 -1392 256 -1392
WIRE 672 -1392 576 -1392
WIRE 848 -1392 848 -1440
WIRE 848 -1392 752 -1392
WIRE 960 -1392 960 -1440
WIRE 960 -1392 848 -1392
WIRE 1056 -1392 1056 -1440
WIRE 1056 -1392 960 -1392
WIRE 1120 -1392 1120 -1440
WIRE 1120 -1392 1056 -1392
WIRE 1344 -1392 1344 -1424
WIRE 1408 -1392 1408 -1440
WIRE 1408 -1392 1344 -1392
WIRE 1504 -1392 1504 -1440
WIRE 1504 -1392 1408 -1392
WIRE 1616 -1392 1616 -1424
WIRE 1616 -1392 1504 -1392
WIRE 1824 -1392 1616 -1392
WIRE 2032 -1392 1936 -1392
WIRE 2208 -1392 2208 -1440
WIRE 2208 -1392 2112 -1392
WIRE 2320 -1392 2320 -1440
WIRE 2320 -1392 2208 -1392
WIRE 2416 -1392 2416 -1440
WIRE 2416 -1392 2320 -1392
WIRE 2480 -1392 2480 -1440
WIRE 2480 -1392 2416 -1392
WIRE 48 -1328 -16 -1328
WIRE 144 -1328 48 -1328
WIRE 256 -1328 144 -1328
WIRE 352 -1328 256 -1328
WIRE 464 -1328 464 -1392
WIRE 464 -1328 432 -1328
WIRE 576 -1328 576 -1392
WIRE 848 -1328 576 -1328
WIRE 960 -1328 848 -1328
WIRE 1056 -1328 960 -1328
WIRE 1120 -1328 1056 -1328
WIRE 1408 -1328 1344 -1328
WIRE 1504 -1328 1408 -1328
WIRE 1616 -1328 1504 -1328
WIRE 1712 -1328 1616 -1328
WIRE 1824 -1328 1824 -1392
WIRE 1824 -1328 1792 -1328
WIRE 1936 -1328 1936 -1392
WIRE 2208 -1328 1936 -1328
WIRE 2320 -1328 2208 -1328
WIRE 2416 -1328 2320 -1328
WIRE 2480 -1328 2416 -1328
WIRE 848 -1296 848 -1328
WIRE 1120 -1296 1120 -1328
WIRE 2208 -1296 2208 -1328
WIRE 2480 -1296 2480 -1328
WIRE -16 -1280 -16 -1328
WIRE 48 -1280 48 -1328
WIRE 144 -1280 144 -1328
WIRE 256 -1280 256 -1328
WIRE 960 -1280 960 -1328
WIRE 1056 -1280 1056 -1328
WIRE 1344 -1280 1344 -1328
WIRE 1408 -1280 1408 -1328
WIRE 1504 -1280 1504 -1328
WIRE 1616 -1280 1616 -1328
WIRE 2320 -1280 2320 -1328
WIRE 2416 -1280 2416 -1328
WIRE -16 -1168 -16 -1200
WIRE 48 -1168 48 -1216
WIRE 48 -1168 -16 -1168
WIRE 144 -1168 144 -1216
WIRE 144 -1168 48 -1168
WIRE 256 -1168 256 -1200
WIRE 256 -1168 144 -1168
WIRE 464 -1168 256 -1168
WIRE 672 -1168 576 -1168
WIRE 848 -1168 848 -1216
WIRE 848 -1168 752 -1168
WIRE 960 -1168 960 -1216
WIRE 960 -1168 848 -1168
WIRE 1056 -1168 1056 -1216
WIRE 1056 -1168 960 -1168
WIRE 1120 -1168 1120 -1216
WIRE 1120 -1168 1056 -1168
WIRE 1344 -1168 1344 -1200
WIRE 1408 -1168 1408 -1216
WIRE 1408 -1168 1344 -1168
WIRE 1504 -1168 1504 -1216
WIRE 1504 -1168 1408 -1168
WIRE 1616 -1168 1616 -1200
WIRE 1616 -1168 1504 -1168
WIRE 1824 -1168 1616 -1168
WIRE 2032 -1168 1936 -1168
WIRE 2208 -1168 2208 -1216
WIRE 2208 -1168 2112 -1168
WIRE 2320 -1168 2320 -1216
WIRE 2320 -1168 2208 -1168
WIRE 2416 -1168 2416 -1216
WIRE 2416 -1168 2320 -1168
WIRE 2480 -1168 2480 -1216
WIRE 2480 -1168 2416 -1168
WIRE 48 -1104 -16 -1104
WIRE 144 -1104 48 -1104
WIRE 256 -1104 144 -1104
WIRE 352 -1104 256 -1104
WIRE 464 -1104 464 -1168
WIRE 464 -1104 432 -1104
WIRE 576 -1104 576 -1168
WIRE 848 -1104 576 -1104
WIRE 960 -1104 848 -1104
WIRE 1056 -1104 960 -1104
WIRE 1120 -1104 1056 -1104
WIRE 1408 -1104 1344 -1104
WIRE 1504 -1104 1408 -1104
WIRE 1616 -1104 1504 -1104
WIRE 1712 -1104 1616 -1104
WIRE 1824 -1104 1824 -1168
WIRE 1824 -1104 1792 -1104
WIRE 1936 -1104 1936 -1168
WIRE 2208 -1104 1936 -1104
WIRE 2320 -1104 2208 -1104
WIRE 2416 -1104 2320 -1104
WIRE 2480 -1104 2416 -1104
WIRE 848 -1072 848 -1104
WIRE 1120 -1072 1120 -1104
WIRE 2208 -1072 2208 -1104
WIRE 2480 -1072 2480 -1104
WIRE -16 -1056 -16 -1104
WIRE 48 -1056 48 -1104
WIRE 144 -1056 144 -1104
WIRE 256 -1056 256 -1104
WIRE 960 -1056 960 -1104
WIRE 1056 -1056 1056 -1104
WIRE 1344 -1056 1344 -1104
WIRE 1408 -1056 1408 -1104
WIRE 1504 -1056 1504 -1104
WIRE 1616 -1056 1616 -1104
WIRE 2320 -1056 2320 -1104
WIRE 2416 -1056 2416 -1104
WIRE -16 -944 -16 -976
WIRE 48 -944 48 -992
WIRE 48 -944 -16 -944
WIRE 144 -944 144 -992
WIRE 144 -944 48 -944
WIRE 256 -944 256 -976
WIRE 256 -944 144 -944
WIRE 464 -944 256 -944
WIRE 672 -944 576 -944
WIRE 848 -944 848 -992
WIRE 848 -944 752 -944
WIRE 960 -944 960 -992
WIRE 960 -944 848 -944
WIRE 1056 -944 1056 -992
WIRE 1056 -944 960 -944
WIRE 1120 -944 1120 -992
WIRE 1120 -944 1056 -944
WIRE 1344 -944 1344 -976
WIRE 1408 -944 1408 -992
WIRE 1408 -944 1344 -944
WIRE 1504 -944 1504 -992
WIRE 1504 -944 1408 -944
WIRE 1616 -944 1616 -976
WIRE 1616 -944 1504 -944
WIRE 1824 -944 1616 -944
WIRE 2032 -944 1936 -944
WIRE 2208 -944 2208 -992
WIRE 2208 -944 2112 -944
WIRE 2320 -944 2320 -992
WIRE 2320 -944 2208 -944
WIRE 2416 -944 2416 -992
WIRE 2416 -944 2320 -944
WIRE 2480 -944 2480 -992
WIRE 2480 -944 2416 -944
WIRE 48 -880 -16 -880
WIRE 144 -880 48 -880
WIRE 256 -880 144 -880
WIRE 352 -880 256 -880
WIRE 464 -880 464 -944
WIRE 464 -880 432 -880
WIRE 576 -880 576 -944
WIRE 848 -880 576 -880
WIRE 960 -880 848 -880
WIRE 1056 -880 960 -880
WIRE 1120 -880 1056 -880
WIRE 1408 -880 1344 -880
WIRE 1504 -880 1408 -880
WIRE 1616 -880 1504 -880
WIRE 1712 -880 1616 -880
WIRE 1824 -880 1824 -944
WIRE 1824 -880 1792 -880
WIRE 1936 -880 1936 -944
WIRE 2208 -880 1936 -880
WIRE 2320 -880 2208 -880
WIRE 2416 -880 2320 -880
WIRE 2480 -880 2416 -880
WIRE 848 -848 848 -880
WIRE 1120 -848 1120 -880
WIRE 2208 -848 2208 -880
WIRE 2480 -848 2480 -880
WIRE -16 -832 -16 -880
WIRE 48 -832 48 -880
WIRE 144 -832 144 -880
WIRE 256 -832 256 -880
WIRE 960 -832 960 -880
WIRE 1056 -832 1056 -880
WIRE 1344 -832 1344 -880
WIRE 1408 -832 1408 -880
WIRE 1504 -832 1504 -880
WIRE 1616 -832 1616 -880
WIRE 2320 -832 2320 -880
WIRE 2416 -832 2416 -880
WIRE -16 -720 -16 -752
WIRE 48 -720 48 -768
WIRE 48 -720 -16 -720
WIRE 144 -720 144 -768
WIRE 144 -720 48 -720
WIRE 256 -720 256 -752
WIRE 256 -720 144 -720
WIRE 464 -720 256 -720
WIRE 672 -720 576 -720
WIRE 848 -720 848 -768
WIRE 848 -720 752 -720
WIRE 960 -720 960 -768
WIRE 960 -720 848 -720
WIRE 1056 -720 1056 -768
WIRE 1056 -720 960 -720
WIRE 1120 -720 1120 -768
WIRE 1120 -720 1056 -720
WIRE 1344 -720 1344 -752
WIRE 1408 -720 1408 -768
WIRE 1408 -720 1344 -720
WIRE 1504 -720 1504 -768
WIRE 1504 -720 1408 -720
WIRE 1616 -720 1616 -752
WIRE 1616 -720 1504 -720
WIRE 1824 -720 1616 -720
WIRE 2032 -720 1936 -720
WIRE 2208 -720 2208 -768
WIRE 2208 -720 2112 -720
WIRE 2320 -720 2320 -768
WIRE 2320 -720 2208 -720
WIRE 2416 -720 2416 -768
WIRE 2416 -720 2320 -720
WIRE 2480 -720 2480 -768
WIRE 2480 -720 2416 -720
WIRE 48 -656 -16 -656
WIRE 144 -656 48 -656
WIRE 256 -656 144 -656
WIRE 352 -656 256 -656
WIRE 464 -656 464 -720
WIRE 464 -656 432 -656
WIRE 576 -656 576 -720
WIRE 848 -656 576 -656
WIRE 960 -656 848 -656
WIRE 1056 -656 960 -656
WIRE 1120 -656 1056 -656
WIRE 1408 -656 1344 -656
WIRE 1504 -656 1408 -656
WIRE 1616 -656 1504 -656
WIRE 1712 -656 1616 -656
WIRE 1824 -656 1824 -720
WIRE 1824 -656 1792 -656
WIRE 1936 -656 1936 -720
WIRE 2208 -656 1936 -656
WIRE 2320 -656 2208 -656
WIRE 2416 -656 2320 -656
WIRE 2480 -656 2416 -656
WIRE 848 -624 848 -656
WIRE 1120 -624 1120 -656
WIRE 2208 -624 2208 -656
WIRE 2480 -624 2480 -656
WIRE -16 -608 -16 -656
WIRE 48 -608 48 -656
WIRE 144 -608 144 -656
WIRE 256 -608 256 -656
WIRE 960 -608 960 -656
WIRE 1056 -608 1056 -656
WIRE 1344 -608 1344 -656
WIRE 1408 -608 1408 -656
WIRE 1504 -608 1504 -656
WIRE 1616 -608 1616 -656
WIRE 2320 -608 2320 -656
WIRE 2416 -608 2416 -656
WIRE -16 -496 -16 -528
WIRE 48 -496 48 -544
WIRE 48 -496 -16 -496
WIRE 144 -496 144 -544
WIRE 144 -496 48 -496
WIRE 256 -496 256 -528
WIRE 256 -496 144 -496
WIRE 464 -496 256 -496
WIRE 672 -496 576 -496
WIRE 848 -496 848 -544
WIRE 848 -496 752 -496
WIRE 960 -496 960 -544
WIRE 960 -496 848 -496
WIRE 1056 -496 1056 -544
WIRE 1056 -496 960 -496
WIRE 1120 -496 1120 -544
WIRE 1120 -496 1056 -496
WIRE 1344 -496 1344 -528
WIRE 1408 -496 1408 -544
WIRE 1408 -496 1344 -496
WIRE 1504 -496 1504 -544
WIRE 1504 -496 1408 -496
WIRE 1616 -496 1616 -528
WIRE 1616 -496 1504 -496
WIRE 1824 -496 1616 -496
WIRE 2032 -496 1936 -496
WIRE 2208 -496 2208 -544
WIRE 2208 -496 2112 -496
WIRE 2320 -496 2320 -544
WIRE 2320 -496 2208 -496
WIRE 2416 -496 2416 -544
WIRE 2416 -496 2320 -496
WIRE 2480 -496 2480 -544
WIRE 2480 -496 2416 -496
WIRE 48 -432 -16 -432
WIRE 144 -432 48 -432
WIRE 256 -432 144 -432
WIRE 352 -432 256 -432
WIRE 464 -432 464 -496
WIRE 464 -432 432 -432
WIRE 576 -432 576 -496
WIRE 848 -432 576 -432
WIRE 960 -432 848 -432
WIRE 1056 -432 960 -432
WIRE 1120 -432 1056 -432
WIRE 1408 -432 1344 -432
WIRE 1504 -432 1408 -432
WIRE 1616 -432 1504 -432
WIRE 1712 -432 1616 -432
WIRE 1824 -432 1824 -496
WIRE 1824 -432 1792 -432
WIRE 1936 -432 1936 -496
WIRE 2208 -432 1936 -432
WIRE 2320 -432 2208 -432
WIRE 2416 -432 2320 -432
WIRE 2480 -432 2416 -432
WIRE 848 -400 848 -432
WIRE 1120 -400 1120 -432
WIRE 2208 -400 2208 -432
WIRE 2480 -400 2480 -432
WIRE -16 -384 -16 -432
WIRE 48 -384 48 -432
WIRE 144 -384 144 -432
WIRE 256 -384 256 -432
WIRE 960 -384 960 -432
WIRE 1056 -384 1056 -432
WIRE 1344 -384 1344 -432
WIRE 1408 -384 1408 -432
WIRE 1504 -384 1504 -432
WIRE 1616 -384 1616 -432
WIRE 2320 -384 2320 -432
WIRE 2416 -384 2416 -432
WIRE -16 -272 -16 -304
WIRE 48 -272 48 -320
WIRE 48 -272 -16 -272
WIRE 144 -272 144 -320
WIRE 144 -272 48 -272
WIRE 256 -272 256 -304
WIRE 256 -272 144 -272
WIRE 464 -272 256 -272
WIRE 672 -272 576 -272
WIRE 848 -272 848 -320
WIRE 848 -272 752 -272
WIRE 960 -272 960 -320
WIRE 960 -272 848 -272
WIRE 1056 -272 1056 -320
WIRE 1056 -272 960 -272
WIRE 1120 -272 1120 -320
WIRE 1120 -272 1056 -272
WIRE 1344 -272 1344 -304
WIRE 1408 -272 1408 -320
WIRE 1408 -272 1344 -272
WIRE 1504 -272 1504 -320
WIRE 1504 -272 1408 -272
WIRE 1616 -272 1616 -304
WIRE 1616 -272 1504 -272
WIRE 1824 -272 1616 -272
WIRE 2032 -272 1936 -272
WIRE 2208 -272 2208 -320
WIRE 2208 -272 2112 -272
WIRE 2320 -272 2320 -320
WIRE 2320 -272 2208 -272
WIRE 2416 -272 2416 -320
WIRE 2416 -272 2320 -272
WIRE 2480 -272 2480 -320
WIRE 2480 -272 2416 -272
WIRE 48 -208 -16 -208
WIRE 144 -208 48 -208
WIRE 256 -208 144 -208
WIRE 352 -208 256 -208
WIRE 464 -208 464 -272
WIRE 464 -208 432 -208
WIRE 576 -208 576 -272
WIRE 848 -208 576 -208
WIRE 960 -208 848 -208
WIRE 1056 -208 960 -208
WIRE 1120 -208 1056 -208
WIRE 1408 -208 1344 -208
WIRE 1504 -208 1408 -208
WIRE 1616 -208 1504 -208
WIRE 1712 -208 1616 -208
WIRE 1824 -208 1824 -272
WIRE 1824 -208 1792 -208
WIRE 1936 -208 1936 -272
WIRE 2208 -208 1936 -208
WIRE 2320 -208 2208 -208
WIRE 2416 -208 2320 -208
WIRE 2480 -208 2416 -208
WIRE 848 -176 848 -208
WIRE 1120 -176 1120 -208
WIRE 2208 -176 2208 -208
WIRE 2480 -176 2480 -208
WIRE -16 -160 -16 -208
WIRE 48 -160 48 -208
WIRE 144 -160 144 -208
WIRE 256 -160 256 -208
WIRE 960 -160 960 -208
WIRE 1056 -160 1056 -208
WIRE 1344 -160 1344 -208
WIRE 1408 -160 1408 -208
WIRE 1504 -160 1504 -208
WIRE 1616 -160 1616 -208
WIRE 2320 -160 2320 -208
WIRE 2416 -160 2416 -208
WIRE -16 -48 -16 -80
WIRE 48 -48 48 -96
WIRE 48 -48 -16 -48
WIRE 144 -48 144 -96
WIRE 144 -48 48 -48
WIRE 256 -48 256 -80
WIRE 256 -48 144 -48
WIRE 464 -48 256 -48
WIRE 672 -48 576 -48
WIRE 848 -48 848 -96
WIRE 848 -48 752 -48
WIRE 960 -48 960 -96
WIRE 960 -48 848 -48
WIRE 1056 -48 1056 -96
WIRE 1056 -48 960 -48
WIRE 1120 -48 1120 -96
WIRE 1120 -48 1056 -48
WIRE 1344 -48 1344 -80
WIRE 1408 -48 1408 -96
WIRE 1408 -48 1344 -48
WIRE 1504 -48 1504 -96
WIRE 1504 -48 1408 -48
WIRE 1616 -48 1616 -80
WIRE 1616 -48 1504 -48
WIRE 1824 -48 1616 -48
WIRE 2032 -48 1936 -48
WIRE 2208 -48 2208 -96
WIRE 2208 -48 2112 -48
WIRE 2320 -48 2320 -96
WIRE 2320 -48 2208 -48
WIRE 2416 -48 2416 -96
WIRE 2416 -48 2320 -48
WIRE 2480 -48 2480 -96
WIRE 2480 -48 2416 -48
WIRE 48 16 -16 16
WIRE 144 16 48 16
WIRE 256 16 144 16
WIRE 352 16 256 16
WIRE 464 16 464 -48
WIRE 464 16 432 16
WIRE 576 16 576 -48
WIRE 848 16 576 16
WIRE 960 16 848 16
WIRE 1056 16 960 16
WIRE 1120 16 1056 16
WIRE 1408 16 1344 16
WIRE 1504 16 1408 16
WIRE 1616 16 1504 16
WIRE 1712 16 1616 16
WIRE 1824 16 1824 -48
WIRE 1824 16 1792 16
WIRE 1936 16 1936 -48
WIRE 2208 16 1936 16
WIRE 2320 16 2208 16
WIRE 2416 16 2320 16
WIRE 2480 16 2416 16
WIRE 848 48 848 16
WIRE 1120 48 1120 16
WIRE 2208 48 2208 16
WIRE 2480 48 2480 16
WIRE -16 64 -16 16
WIRE 48 64 48 16
WIRE 144 64 144 16
WIRE 256 64 256 16
WIRE 960 64 960 16
WIRE 1056 64 1056 16
WIRE 1344 64 1344 16
WIRE 1408 64 1408 16
WIRE 1504 64 1504 16
WIRE 1616 64 1616 16
WIRE 2320 64 2320 16
WIRE 2416 64 2416 16
WIRE -16 176 -16 144
WIRE 48 176 48 128
WIRE 48 176 -16 176
WIRE 144 176 144 128
WIRE 144 176 48 176
WIRE 256 176 256 144
WIRE 256 176 144 176
WIRE 464 176 256 176
WIRE 672 176 576 176
WIRE 848 176 848 128
WIRE 848 176 752 176
WIRE 960 176 960 128
WIRE 960 176 848 176
WIRE 1056 176 1056 128
WIRE 1056 176 960 176
WIRE 1120 176 1120 128
WIRE 1120 176 1056 176
WIRE 1344 176 1344 144
WIRE 1408 176 1408 128
WIRE 1408 176 1344 176
WIRE 1504 176 1504 128
WIRE 1504 176 1408 176
WIRE 1616 176 1616 144
WIRE 1616 176 1504 176
WIRE 1824 176 1616 176
WIRE 2032 176 1936 176
WIRE 2208 176 2208 128
WIRE 2208 176 2112 176
WIRE 2320 176 2320 128
WIRE 2320 176 2208 176
WIRE 2416 176 2416 128
WIRE 2416 176 2320 176
WIRE 2480 176 2480 128
WIRE 2480 176 2416 176
WIRE 48 240 -16 240
WIRE 144 240 48 240
WIRE 256 240 144 240
WIRE 352 240 256 240
WIRE 464 240 464 176
WIRE 464 240 432 240
WIRE 576 240 576 176
WIRE 848 240 576 240
WIRE 960 240 848 240
WIRE 1056 240 960 240
WIRE 1120 240 1056 240
WIRE 1408 240 1344 240
WIRE 1504 240 1408 240
WIRE 1616 240 1504 240
WIRE 1712 240 1616 240
WIRE 1824 240 1824 176
WIRE 1824 240 1792 240
WIRE 1936 240 1936 176
WIRE 2208 240 1936 240
WIRE 2320 240 2208 240
WIRE 2416 240 2320 240
WIRE 2480 240 2416 240
WIRE 848 272 848 240
WIRE 1120 272 1120 240
WIRE 2208 272 2208 240
WIRE 2480 272 2480 240
WIRE -16 288 -16 240
WIRE 48 288 48 240
WIRE 144 288 144 240
WIRE 256 288 256 240
WIRE 960 288 960 240
WIRE 1056 288 1056 240
WIRE 1344 288 1344 240
WIRE 1408 288 1408 240
WIRE 1504 288 1504 240
WIRE 1616 288 1616 240
WIRE 2320 288 2320 240
WIRE 2416 288 2416 240
WIRE -16 400 -16 368
WIRE 48 400 48 352
WIRE 48 400 -16 400
WIRE 144 400 144 352
WIRE 144 400 48 400
WIRE 256 400 256 368
WIRE 256 400 144 400
WIRE 464 400 256 400
WIRE 672 400 576 400
WIRE 848 400 848 352
WIRE 848 400 752 400
WIRE 960 400 960 352
WIRE 960 400 848 400
WIRE 1056 400 1056 352
WIRE 1056 400 960 400
WIRE 1120 400 1120 352
WIRE 1120 400 1056 400
WIRE 1344 400 1344 368
WIRE 1408 400 1408 352
WIRE 1408 400 1344 400
WIRE 1504 400 1504 352
WIRE 1504 400 1408 400
WIRE 1616 400 1616 368
WIRE 1616 400 1504 400
WIRE 1824 400 1616 400
WIRE 2032 400 1936 400
WIRE 2208 400 2208 352
WIRE 2208 400 2112 400
WIRE 2320 400 2320 352
WIRE 2320 400 2208 400
WIRE 2416 400 2416 352
WIRE 2416 400 2320 400
WIRE 2480 400 2480 352
WIRE 2480 400 2416 400
WIRE 48 464 -16 464
WIRE 144 464 48 464
WIRE 256 464 144 464
WIRE 352 464 256 464
WIRE 464 464 464 400
WIRE 464 464 432 464
WIRE 576 464 576 400
WIRE 848 464 576 464
WIRE 960 464 848 464
WIRE 1056 464 960 464
WIRE 1120 464 1056 464
WIRE 1408 464 1344 464
WIRE 1504 464 1408 464
WIRE 1616 464 1504 464
WIRE 1712 464 1616 464
WIRE 1824 464 1824 400
WIRE 1824 464 1792 464
WIRE 1936 464 1936 400
WIRE 2208 464 1936 464
WIRE 2320 464 2208 464
WIRE 2416 464 2320 464
WIRE 2480 464 2416 464
WIRE 848 496 848 464
WIRE 1120 496 1120 464
WIRE 2208 496 2208 464
WIRE 2480 496 2480 464
WIRE -16 512 -16 464
WIRE 48 512 48 464
WIRE 144 512 144 464
WIRE 256 512 256 464
WIRE 960 512 960 464
WIRE 1056 512 1056 464
WIRE 1344 512 1344 464
WIRE 1408 512 1408 464
WIRE 1504 512 1504 464
WIRE 1616 512 1616 464
WIRE 2320 512 2320 464
WIRE 2416 512 2416 464
WIRE -16 624 -16 592
WIRE 48 624 48 576
WIRE 48 624 -16 624
WIRE 144 624 144 576
WIRE 144 624 48 624
WIRE 256 624 256 592
WIRE 256 624 144 624
WIRE 464 624 256 624
WIRE 672 624 576 624
WIRE 848 624 848 576
WIRE 848 624 752 624
WIRE 960 624 960 576
WIRE 960 624 848 624
WIRE 1056 624 1056 576
WIRE 1056 624 960 624
WIRE 1120 624 1120 576
WIRE 1120 624 1056 624
WIRE 1344 624 1344 592
WIRE 1408 624 1408 576
WIRE 1408 624 1344 624
WIRE 1504 624 1504 576
WIRE 1504 624 1408 624
WIRE 1616 624 1616 592
WIRE 1616 624 1504 624
WIRE 1824 624 1616 624
WIRE 2032 624 1936 624
WIRE 2208 624 2208 576
WIRE 2208 624 2112 624
WIRE 2320 624 2320 576
WIRE 2320 624 2208 624
WIRE 2416 624 2416 576
WIRE 2416 624 2320 624
WIRE 2480 624 2480 576
WIRE 2480 624 2416 624
WIRE 48 688 -16 688
WIRE 144 688 48 688
WIRE 256 688 144 688
WIRE 352 688 256 688
WIRE 464 688 464 624
WIRE 464 688 432 688
WIRE 576 688 576 624
WIRE 848 688 576 688
WIRE 960 688 848 688
WIRE 1056 688 960 688
WIRE 1120 688 1056 688
WIRE 1408 688 1344 688
WIRE 1504 688 1408 688
WIRE 1616 688 1504 688
WIRE 1712 688 1616 688
WIRE 1824 688 1824 624
WIRE 1824 688 1792 688
WIRE 1936 688 1936 624
WIRE 2208 688 1936 688
WIRE 2320 688 2208 688
WIRE 2416 688 2320 688
WIRE 2480 688 2416 688
WIRE 848 720 848 688
WIRE 1120 720 1120 688
WIRE 2208 720 2208 688
WIRE 2480 720 2480 688
WIRE -16 736 -16 688
WIRE 48 736 48 688
WIRE 144 736 144 688
WIRE 256 736 256 688
WIRE 960 736 960 688
WIRE 1056 736 1056 688
WIRE 1344 736 1344 688
WIRE 1408 736 1408 688
WIRE 1504 736 1504 688
WIRE 1616 736 1616 688
WIRE 2320 736 2320 688
WIRE 2416 736 2416 688
WIRE -16 848 -16 816
WIRE 48 848 48 800
WIRE 48 848 -16 848
WIRE 144 848 144 800
WIRE 144 848 48 848
WIRE 256 848 256 816
WIRE 256 848 144 848
WIRE 464 848 256 848
WIRE 672 848 576 848
WIRE 848 848 848 800
WIRE 848 848 752 848
WIRE 960 848 960 800
WIRE 960 848 848 848
WIRE 1056 848 1056 800
WIRE 1056 848 960 848
WIRE 1120 848 1120 800
WIRE 1120 848 1056 848
WIRE 1344 848 1344 816
WIRE 1408 848 1408 800
WIRE 1408 848 1344 848
WIRE 1504 848 1504 800
WIRE 1504 848 1408 848
WIRE 1616 848 1616 816
WIRE 1616 848 1504 848
WIRE 1824 848 1616 848
WIRE 2032 848 1936 848
WIRE 2208 848 2208 800
WIRE 2208 848 2112 848
WIRE 2320 848 2320 800
WIRE 2320 848 2208 848
WIRE 2416 848 2416 800
WIRE 2416 848 2320 848
WIRE 2480 848 2480 800
WIRE 2480 848 2416 848
WIRE 48 912 -16 912
WIRE 144 912 48 912
WIRE 256 912 144 912
WIRE 352 912 256 912
WIRE 464 912 464 848
WIRE 464 912 432 912