Version 4
SHEET 1 1844 680
WIRE 64 32 -16 32
WIRE 160 32 64 32
WIRE 256 32 160 32
WIRE 352 32 256 32
WIRE 624 32 432 32
WIRE -16 112 -16 32
WIRE 64 112 64 32
WIRE 160 112 160 32
WIRE 256 112 256 32
WIRE 768 112 768 80
WIRE 592 192 544 192
WIRE 720 192 672 192
WIRE 768 256 768 208
WIRE -16 272 -16 192
WIRE 64 272 64 176
WIRE 64 272 -16 272
WIRE 160 272 160 176
WIRE 160 272 64 272
WIRE 256 272 256 192
WIRE 256 272 160 272
WIRE 624 272 256 272
WIRE 640 384 640 368
FLAG 624 272 IN
IOPIN 624 272 In
FLAG 624 32 OUT
IOPIN 624 32 Out
FLAG 640 384 0
FLAG 640 368 IN
IOPIN 640 368 Out
FLAG 768 80 OUT
IOPIN 768 80 In
FLAG 768 256 IN
IOPIN 768 256 Out
FLAG 544 192 0
SYMBOL current -16 192 R180
WINDOW 0 24 80 Left 2
WINDOW 3 24 0 Left 2
WINDOW 123 0 0 Left 2
WINDOW 39 0 0 Left 2
SYMATTR InstName I1
SYMATTR Value {Isource}
SYMBOL cap 48 112 R0
SYMATTR InstName C1
SYMATTR Value {Cpara}
SYMBOL diode 144 112 R0
SYMATTR InstName D1
SYMATTR Value diode1
SYMBOL res 240 96 R0
SYMATTR InstName R1
SYMATTR Value {Rshunt}
SYMBOL res 448 16 R90
WINDOW 0 0 56 VBottom 2
WINDOW 3 32 56 VTop 2
SYMATTR InstName R2
SYMATTR Value {Rseries}
SYMBOL nmos 720 112 R0
SYMATTR InstName M1
SYMBOL voltage 688 192 R90
WINDOW 0 -32 56 VBottom 2
WINDOW 3 32 56 VTop 2
WINDOW 123 0 0 Left 2
WINDOW 39 0 0 Left 2
SYMATTR InstName V1
SYMATTR Value PULSE(0 3.3 0 0 0 0.5e-4 1e-4)
TEXT -288 40 Left 2 !.model diode1 D(IS=0.288m N=168)
TEXT -288 160 Left 2 !.tran 1m
TEXT -288 88 Left 2 !.param Rshunt = 60k
TEXT -288 64 Left 2 !.param Rseries = 24m
TEXT -288 136 Left 2 !.param Cpara = 167n
TEXT -288 112 Left 2 !.param Isource = 10
TEXT -288 320 Left 2 !.model mos1 VDMOS(Rg=3 Vto=1.7 Rd=8m Rs=6m Rb=10m Kp=70 Cgdmax=2.5n Cgdmin=.4n Cgs=2n Cjo=1n Is=80p Vds=100 Ron=20m Qg=40n)
