Version 4
SHEET 1 2916 2224
WIRE 48 -2736 -16 -2736
WIRE 144 -2736 48 -2736
WIRE 256 -2736 144 -2736
WIRE 352 -2736 256 -2736
WIRE 848 -2736 432 -2736
WIRE 960 -2736 848 -2736
WIRE 1056 -2736 960 -2736
WIRE 1120 -2736 1056 -2736
WIRE 1344 -2736 1280 -2736
WIRE 1440 -2736 1344 -2736
WIRE 1552 -2736 1440 -2736
WIRE 1968 -2736 1552 -2736
WIRE 2144 -2736 2048 -2736
WIRE 2256 -2736 2144 -2736
WIRE 2352 -2736 2256 -2736
WIRE 2416 -2736 2352 -2736
WIRE 848 -2704 848 -2736
WIRE 1120 -2704 1120 -2736
WIRE 1280 -2704 1280 -2736
WIRE 1552 -2704 1552 -2736
WIRE -16 -2688 -16 -2736
WIRE 48 -2688 48 -2736
WIRE 144 -2688 144 -2736
WIRE 256 -2688 256 -2736
WIRE 960 -2688 960 -2736
WIRE 1056 -2688 1056 -2736
WIRE 1344 -2688 1344 -2736
WIRE 1440 -2688 1440 -2736
WIRE 2144 -2688 2144 -2736
WIRE 2256 -2688 2256 -2736
WIRE 2352 -2688 2352 -2736
WIRE 2416 -2688 2416 -2736
WIRE -16 -2576 -16 -2608
WIRE 48 -2576 48 -2624
WIRE 48 -2576 -16 -2576
WIRE 144 -2576 144 -2624
WIRE 144 -2576 48 -2576
WIRE 256 -2576 256 -2608
WIRE 256 -2576 144 -2576
WIRE 464 -2576 256 -2576
WIRE 672 -2576 640 -2576
WIRE 848 -2576 848 -2624
WIRE 848 -2576 752 -2576
WIRE 960 -2576 960 -2624
WIRE 960 -2576 848 -2576
WIRE 1056 -2576 1056 -2624
WIRE 1056 -2576 960 -2576
WIRE 1120 -2576 1120 -2624
WIRE 1120 -2576 1056 -2576
WIRE 1280 -2576 1280 -2624
WIRE 1344 -2576 1344 -2624
WIRE 1344 -2576 1280 -2576
WIRE 1440 -2576 1440 -2624
WIRE 1440 -2576 1344 -2576
WIRE 1552 -2576 1552 -2624
WIRE 1552 -2576 1440 -2576
WIRE 1648 -2576 1552 -2576
WIRE 1760 -2576 1728 -2576
WIRE 2144 -2576 2144 -2608
WIRE 2144 -2576 1936 -2576
WIRE 2256 -2576 2256 -2624
WIRE 2256 -2576 2144 -2576
WIRE 2352 -2576 2352 -2624
WIRE 2352 -2576 2256 -2576
WIRE 2416 -2576 2416 -2608
WIRE 2416 -2576 2352 -2576
WIRE 48 -2512 -16 -2512
WIRE 144 -2512 48 -2512
WIRE 256 -2512 144 -2512
WIRE 352 -2512 256 -2512
WIRE 464 -2512 464 -2576
WIRE 464 -2512 432 -2512
WIRE 640 -2512 640 -2576
WIRE 848 -2512 640 -2512
WIRE 960 -2512 848 -2512
WIRE 1056 -2512 960 -2512
WIRE 1120 -2512 1056 -2512
WIRE 1344 -2512 1280 -2512
WIRE 1440 -2512 1344 -2512
WIRE 1552 -2512 1440 -2512
WIRE 1760 -2512 1760 -2576
WIRE 1760 -2512 1552 -2512
WIRE 1936 -2512 1936 -2576
WIRE 1968 -2512 1936 -2512
WIRE 2144 -2512 2048 -2512
WIRE 2256 -2512 2144 -2512
WIRE 2352 -2512 2256 -2512
WIRE 2416 -2512 2352 -2512
WIRE 848 -2480 848 -2512
WIRE 1120 -2480 1120 -2512
WIRE 1280 -2480 1280 -2512
WIRE 1552 -2480 1552 -2512
WIRE -16 -2464 -16 -2512
WIRE 48 -2464 48 -2512
WIRE 144 -2464 144 -2512
WIRE 256 -2464 256 -2512
WIRE 960 -2464 960 -2512
WIRE 1056 -2464 1056 -2512
WIRE 1344 -2464 1344 -2512
WIRE 1440 -2464 1440 -2512
WIRE 2144 -2464 2144 -2512
WIRE 2256 -2464 2256 -2512
WIRE 2352 -2464 2352 -2512
WIRE 2416 -2464 2416 -2512
WIRE -16 -2352 -16 -2384
WIRE 48 -2352 48 -2400
WIRE 48 -2352 -16 -2352
WIRE 144 -2352 144 -2400
WIRE 144 -2352 48 -2352
WIRE 256 -2352 256 -2384
WIRE 256 -2352 144 -2352
WIRE 464 -2352 256 -2352
WIRE 672 -2352 640 -2352
WIRE 848 -2352 848 -2400
WIRE 848 -2352 752 -2352
WIRE 960 -2352 960 -2400
WIRE 960 -2352 848 -2352
WIRE 1056 -2352 1056 -2400
WIRE 1056 -2352 960 -2352
WIRE 1120 -2352 1120 -2400
WIRE 1120 -2352 1056 -2352
WIRE 1280 -2352 1280 -2400
WIRE 1344 -2352 1344 -2400
WIRE 1344 -2352 1280 -2352
WIRE 1440 -2352 1440 -2400
WIRE 1440 -2352 1344 -2352
WIRE 1552 -2352 1552 -2400
WIRE 1552 -2352 1440 -2352
WIRE 1648 -2352 1552 -2352
WIRE 1760 -2352 1728 -2352
WIRE 2144 -2352 2144 -2384
WIRE 2144 -2352 1936 -2352
WIRE 2256 -2352 2256 -2400
WIRE 2256 -2352 2144 -2352
WIRE 2352 -2352 2352 -2400
WIRE 2352 -2352 2256 -2352
WIRE 2416 -2352 2416 -2384
WIRE 2416 -2352 2352 -2352
WIRE 48 -2304 -16 -2304
WIRE 144 -2304 48 -2304
WIRE 256 -2304 144 -2304
WIRE 352 -2304 256 -2304
WIRE 464 -2304 464 -2352
WIRE 464 -2304 432 -2304
WIRE 640 -2304 640 -2352
WIRE 848 -2304 640 -2304
WIRE 960 -2304 848 -2304
WIRE 1056 -2304 960 -2304
WIRE 1120 -2304 1056 -2304
WIRE 1344 -2304 1280 -2304
WIRE 1440 -2304 1344 -2304
WIRE 1552 -2304 1440 -2304
WIRE 1760 -2304 1760 -2352
WIRE 1760 -2304 1552 -2304
WIRE 1936 -2304 1936 -2352
WIRE 1968 -2304 1936 -2304
WIRE 2144 -2304 2048 -2304
WIRE 2256 -2304 2144 -2304
WIRE 2352 -2304 2256 -2304
WIRE 2416 -2304 2352 -2304
WIRE 848 -2272 848 -2304
WIRE 1120 -2272 1120 -2304
WIRE 1280 -2272 1280 -2304
WIRE 1552 -2272 1552 -2304
WIRE -16 -2256 -16 -2304
WIRE 48 -2256 48 -2304
WIRE 144 -2256 144 -2304
WIRE 256 -2256 256 -2304
WIRE 960 -2256 960 -2304
WIRE 1056 -2256 1056 -2304
WIRE 1344 -2256 1344 -2304
WIRE 1440 -2256 1440 -2304
WIRE 2144 -2256 2144 -2304
WIRE 2256 -2256 2256 -2304
WIRE 2352 -2256 2352 -2304
WIRE 2416 -2256 2416 -2304
WIRE -16 -2144 -16 -2176
WIRE 48 -2144 48 -2192
WIRE 48 -2144 -16 -2144
WIRE 144 -2144 144 -2192
WIRE 144 -2144 48 -2144
WIRE 256 -2144 256 -2176
WIRE 256 -2144 144 -2144
WIRE 464 -2144 256 -2144
WIRE 672 -2144 640 -2144
WIRE 848 -2144 848 -2192
WIRE 848 -2144 752 -2144
WIRE 960 -2144 960 -2192
WIRE 960 -2144 848 -2144
WIRE 1056 -2144 1056 -2192
WIRE 1056 -2144 960 -2144
WIRE 1120 -2144 1120 -2192
WIRE 1120 -2144 1056 -2144
WIRE 1280 -2144 1280 -2192
WIRE 1344 -2144 1344 -2192
WIRE 1344 -2144 1280 -2144
WIRE 1440 -2144 1440 -2192
WIRE 1440 -2144 1344 -2144
WIRE 1552 -2144 1552 -2192
WIRE 1552 -2144 1440 -2144
WIRE 1648 -2144 1552 -2144
WIRE 1760 -2144 1728 -2144
WIRE 2144 -2144 2144 -2176
WIRE 2144 -2144 1936 -2144
WIRE 2256 -2144 2256 -2192
WIRE 2256 -2144 2144 -2144
WIRE 2352 -2144 2352 -2192
WIRE 2352 -2144 2256 -2144
WIRE 2416 -2144 2416 -2176
WIRE 2416 -2144 2352 -2144
WIRE 48 -2080 -16 -2080
WIRE 144 -2080 48 -2080
WIRE 256 -2080 144 -2080
WIRE 352 -2080 256 -2080
WIRE 464 -2080 464 -2144
WIRE 464 -2080 432 -2080
WIRE 640 -2080 640 -2144
WIRE 848 -2080 640 -2080
WIRE 960 -2080 848 -2080
WIRE 1056 -2080 960 -2080
WIRE 1120 -2080 1056 -2080
WIRE 1344 -2080 1280 -2080
WIRE 1440 -2080 1344 -2080
WIRE 1552 -2080 1440 -2080
WIRE 1760 -2080 1760 -2144
WIRE 1760 -2080 1552 -2080
WIRE 1936 -2080 1936 -2144
WIRE 1968 -2080 1936 -2080
WIRE 2144 -2080 2048 -2080
WIRE 2256 -2080 2144 -2080
WIRE 2352 -2080 2256 -2080
WIRE 2416 -2080 2352 -2080
WIRE 848 -2048 848 -2080
WIRE 1120 -2048 1120 -2080
WIRE 1280 -2048 1280 -2080
WIRE 1552 -2048 1552 -2080
WIRE -16 -2032 -16 -2080
WIRE 48 -2032 48 -2080
WIRE 144 -2032 144 -2080
WIRE 256 -2032 256 -2080
WIRE 960 -2032 960 -2080
WIRE 1056 -2032 1056 -2080
WIRE 1344 -2032 1344 -2080
WIRE 1440 -2032 1440 -2080
WIRE 2144 -2032 2144 -2080
WIRE 2256 -2032 2256 -2080
WIRE 2352 -2032 2352 -2080
WIRE 2416 -2032 2416 -2080
WIRE -16 -1920 -16 -1952
WIRE 48 -1920 48 -1968
WIRE 48 -1920 -16 -1920
WIRE 144 -1920 144 -1968
WIRE 144 -1920 48 -1920
WIRE 256 -1920 256 -1952
WIRE 256 -1920 144 -1920
WIRE 464 -1920 256 -1920
WIRE 672 -1920 640 -1920
WIRE 848 -1920 848 -1968
WIRE 848 -1920 752 -1920
WIRE 960 -1920 960 -1968
WIRE 960 -1920 848 -1920
WIRE 1056 -1920 1056 -1968
WIRE 1056 -1920 960 -1920
WIRE 1120 -1920 1120 -1968
WIRE 1120 -1920 1056 -1920
WIRE 1280 -1920 1280 -1968
WIRE 1344 -1920 1344 -1968
WIRE 1344 -1920 1280 -1920
WIRE 1440 -1920 1440 -1968
WIRE 1440 -1920 1344 -1920
WIRE 1552 -1920 1552 -1968
WIRE 1552 -1920 1440 -1920
WIRE 1648 -1920 1552 -1920
WIRE 1760 -1920 1728 -1920
WIRE 2144 -1920 2144 -1952
WIRE 2144 -1920 1936 -1920
WIRE 2256 -1920 2256 -1968
WIRE 2256 -1920 2144 -1920
WIRE 2352 -1920 2352 -1968
WIRE 2352 -1920 2256 -1920
WIRE 2416 -1920 2416 -1952
WIRE 2416 -1920 2352 -1920
WIRE 640 -1888 640 -1920
WIRE 848 -1888 640 -1888
WIRE 960 -1888 848 -1888
WIRE 1056 -1888 960 -1888
WIRE 1120 -1888 1056 -1888
WIRE 1344 -1888 1280 -1888
WIRE 1440 -1888 1344 -1888
WIRE 1552 -1888 1440 -1888
WIRE 1760 -1888 1760 -1920
WIRE 1760 -1888 1552 -1888
WIRE 48 -1872 -16 -1872
WIRE 144 -1872 48 -1872
WIRE 256 -1872 144 -1872
WIRE 352 -1872 256 -1872
WIRE 464 -1872 464 -1920
WIRE 464 -1872 432 -1872
WIRE 1936 -1872 1936 -1920
WIRE 1968 -1872 1936 -1872
WIRE 2144 -1872 2048 -1872
WIRE 2256 -1872 2144 -1872
WIRE 2352 -1872 2256 -1872
WIRE 2416 -1872 2352 -1872
WIRE 848 -1856 848 -1888
WIRE 1120 -1856 1120 -1888
WIRE 1280 -1856 1280 -1888
WIRE 1552 -1856 1552 -1888
WIRE 960 -1840 960 -1888
WIRE 1056 -1840 1056 -1888
WIRE 1344 -1840 1344 -1888
WIRE 1440 -1840 1440 -1888
WIRE -16 -1824 -16 -1872
WIRE 48 -1824 48 -1872
WIRE 144 -1824 144 -1872
WIRE 256 -1824 256 -1872
WIRE 2144 -1824 2144 -1872
WIRE 2256 -1824 2256 -1872
WIRE 2352 -1824 2352 -1872
WIRE 2416 -1824 2416 -1872
WIRE 672 -1728 640 -1728
WIRE 848 -1728 848 -1776
WIRE 848 -1728 752 -1728
WIRE 960 -1728 960 -1776
WIRE 960 -1728 848 -1728
WIRE 1056 -1728 1056 -1776
WIRE 1056 -1728 960 -1728
WIRE 1120 -1728 1120 -1776
WIRE 1120 -1728 1056 -1728
WIRE 1280 -1728 1280 -1776
WIRE 1344 -1728 1344 -1776
WIRE 1344 -1728 1280 -1728
WIRE 1440 -1728 1440 -1776
WIRE 1440 -1728 1344 -1728
WIRE 1552 -1728 1552 -1776
WIRE 1552 -1728 1440 -1728
WIRE 1648 -1728 1552 -1728
WIRE 1760 -1728 1728 -1728
WIRE -16 -1712 -16 -1744
WIRE 48 -1712 48 -1760
WIRE 48 -1712 -16 -1712
WIRE 144 -1712 144 -1760
WIRE 144 -1712 48 -1712
WIRE 256 -1712 256 -1744
WIRE 256 -1712 144 -1712
WIRE 464 -1712 256 -1712
WIRE 2144 -1712 2144 -1744
WIRE 2144 -1712 1936 -1712
WIRE 2256 -1712 2256 -1760
WIRE 2256 -1712 2144 -1712
WIRE 2352 -1712 2352 -1760
WIRE 2352 -1712 2256 -1712
WIRE 2416 -1712 2416 -1744
WIRE 2416 -1712 2352 -1712
WIRE 640 -1664 640 -1728
WIRE 848 -1664 640 -1664
WIRE 960 -1664 848 -1664
WIRE 1056 -1664 960 -1664
WIRE 1120 -1664 1056 -1664
WIRE 1344 -1664 1280 -1664
WIRE 1440 -1664 1344 -1664
WIRE 1552 -1664 1440 -1664
WIRE 1760 -1664 1760 -1728
WIRE 1760 -1664 1552 -1664
WIRE 48 -1648 -16 -1648
WIRE 144 -1648 48 -1648
WIRE 256 -1648 144 -1648
WIRE 352 -1648 256 -1648
WIRE 464 -1648 464 -1712
WIRE 464 -1648 432 -1648
WIRE 1936 -1648 1936 -1712
WIRE 1968 -1648 1936 -1648
WIRE 2144 -1648 2048 -1648
WIRE 2256 -1648 2144 -1648
WIRE 2352 -1648 2256 -1648
WIRE 2416 -1648 2352 -1648
WIRE 848 -1632 848 -1664
WIRE 1120 -1632 1120 -1664
WIRE 1280 -1632 1280 -1664
WIRE 1552 -1632 1552 -1664
WIRE 960 -1616 960 -1664
WIRE 1056 -1616 1056 -1664
WIRE 1344 -1616 1344 -1664
WIRE 1440 -1616 1440 -1664
WIRE -16 -1600 -16 -1648
WIRE 48 -1600 48 -1648
WIRE 144 -1600 144 -1648
WIRE 256 -1600 256 -1648
WIRE 2144 -1600 2144 -1648
WIRE 2256 -1600 2256 -1648
WIRE 2352 -1600 2352 -1648
WIRE 2416 -1600 2416 -1648
WIRE 672 -1504 640 -1504
WIRE 848 -1504 848 -1552
WIRE 848 -1504 752 -1504
WIRE 960 -1504 960 -1552
WIRE 960 -1504 848 -1504
WIRE 1056 -1504 1056 -1552
WIRE 1056 -1504 960 -1504
WIRE 1120 -1504 1120 -1552
WIRE 1120 -1504 1056 -1504
WIRE 1280 -1504 1280 -1552
WIRE 1344 -1504 1344 -1552
WIRE 1344 -1504 1280 -1504
WIRE 1440 -1504 1440 -1552
WIRE 1440 -1504 1344 -1504
WIRE 1552 -1504 1552 -1552
WIRE 1552 -1504 1440 -1504
WIRE 1648 -1504 1552 -1504
WIRE 1760 -1504 1728 -1504
WIRE -16 -1488 -16 -1520
WIRE 48 -1488 48 -1536
WIRE 48 -1488 -16 -1488
WIRE 144 -1488 144 -1536
WIRE 144 -1488 48 -1488
WIRE 256 -1488 256 -1520
WIRE 256 -1488 144 -1488
WIRE 464 -1488 256 -1488
WIRE 2144 -1488 2144 -1520
WIRE 2144 -1488 1936 -1488
WIRE 2256 -1488 2256 -1536
WIRE 2256 -1488 2144 -1488
WIRE 2352 -1488 2352 -1536
WIRE 2352 -1488 2256 -1488
WIRE 2416 -1488 2416 -1520
WIRE 2416 -1488 2352 -1488
WIRE 48 -1456 -16 -1456
WIRE 144 -1456 48 -1456
WIRE 256 -1456 144 -1456
WIRE 352 -1456 256 -1456
WIRE 464 -1456 464 -1488
WIRE 464 -1456 432 -1456
WIRE 640 -1456 640 -1504
WIRE 848 -1456 640 -1456
WIRE 960 -1456 848 -1456
WIRE 1056 -1456 960 -1456
WIRE 1120 -1456 1056 -1456
WIRE 1344 -1456 1280 -1456
WIRE 1440 -1456 1344 -1456
WIRE 1552 -1456 1440 -1456
WIRE 1760 -1456 1760 -1504
WIRE 1760 -1456 1552 -1456
WIRE 1936 -1456 1936 -1488
WIRE 1968 -1456 1936 -1456
WIRE 2144 -1456 2048 -1456
WIRE 2256 -1456 2144 -1456
WIRE 2352 -1456 2256 -1456
WIRE 2416 -1456 2352 -1456
WIRE 848 -1424 848 -1456
WIRE 1120 -1424 1120 -1456
WIRE 1280 -1424 1280 -1456
WIRE 1552 -1424 1552 -1456
WIRE -16 -1408 -16 -1456
WIRE 48 -1408 48 -1456
WIRE 144 -1408 144 -1456
WIRE 256 -1408 256 -1456
WIRE 960 -1408 960 -1456
WIRE 1056 -1408 1056 -1456
WIRE 1344 -1408 1344 -1456
WIRE 1440 -1408 1440 -1456
WIRE 2144 -1408 2144 -1456
WIRE 2256 -1408 2256 -1456
WIRE 2352 -1408 2352 -1456
WIRE 2416 -1408 2416 -1456
WIRE -16 -1296 -16 -1328
WIRE 48 -1296 48 -1344
WIRE 48 -1296 -16 -1296
WIRE 144 -1296 144 -1344
WIRE 144 -1296 48 -1296
WIRE 256 -1296 256 -1328
WIRE 256 -1296 144 -1296
WIRE 464 -1296 256 -1296
WIRE 672 -1296 640 -1296
WIRE 848 -1296 848 -1344
WIRE 848 -1296 752 -1296
WIRE 960 -1296 960 -1344
WIRE 960 -1296 848 -1296
WIRE 1056 -1296 1056 -1344
WIRE 1056 -1296 960 -1296
WIRE 1120 -1296 1120 -1344
WIRE 1120 -1296 1056 -1296
WIRE 1280 -1296 1280 -1344
WIRE 1344 -1296 1344 -1344
WIRE 1344 -1296 1280 -1296
WIRE 1440 -1296 1440 -1344
WIRE 1440 -1296 1344 -1296
WIRE 1552 -1296 1552 -1344
WIRE 1552 -1296 1440 -1296
WIRE 1648 -1296 1552 -1296
WIRE 1760 -1296 1728 -1296
WIRE 2144 -1296 2144 -1328
WIRE 2144 -1296 1936 -1296
WIRE 2256 -1296 2256 -1344
WIRE 2256 -1296 2144 -1296
WIRE 2352 -1296 2352 -1344
WIRE 2352 -1296 2256 -1296
WIRE 2416 -1296 2416 -1328
WIRE 2416 -1296 2352 -1296
WIRE 48 -1232 -16 -1232
WIRE 144 -1232 48 -1232
WIRE 256 -1232 144 -1232
WIRE 352 -1232 256 -1232
WIRE 464 -1232 464 -1296
WIRE 464 -1232 432 -1232
WIRE 640 -1232 640 -1296
WIRE 848 -1232 640 -1232
WIRE 960 -1232 848 -1232
WIRE 1056 -1232 960 -1232
WIRE 1120 -1232 1056 -1232
WIRE 1344 -1232 1280 -1232
WIRE 1440 -1232 1344 -1232
WIRE 1552 -1232 1440 -1232
WIRE 1760 -1232 1760 -1296
WIRE 1760 -1232 1552 -1232
WIRE 1936 -1232 1936 -1296
WIRE 1968 -1232 1936 -1232
WIRE 2144 -1232 2048 -1232
WIRE 2256 -1232 2144 -1232
WIRE 2352 -1232 2256 -1232
WIRE 2416 -1232 2352 -1232
WIRE 848 -1200 848 -1232
WIRE 1120 -1200 1120 -1232
WIRE 1280 -1200 1280 -1232
WIRE 1552 -1200 1552 -1232
WIRE -16 -1184 -16 -1232
WIRE 48 -1184 48 -1232
WIRE 144 -1184 144 -1232
WIRE 256 -1184 256 -1232
WIRE 960 -1184 960 -1232
WIRE 1056 -1184 1056 -1232
WIRE 1344 -1184 1344 -1232
WIRE 1440 -1184 1440 -1232
WIRE 2144 -1184 2144 -1232
WIRE 2256 -1184 2256 -1232
WIRE 2352 -1184 2352 -1232
WIRE 2416 -1184 2416 -1232
WIRE -16 -1072 -16 -1104
WIRE 48 -1072 48 -1120
WIRE 48 -1072 -16 -1072
WIRE 144 -1072 144 -1120
WIRE 144 -1072 48 -1072
WIRE 256 -1072 256 -1104
WIRE 256 -1072 144 -1072
WIRE 464 -1072 256 -1072
WIRE 672 -1072 640 -1072
WIRE 848 -1072 848 -1120
WIRE 848 -1072 752 -1072
WIRE 960 -1072 960 -1120
WIRE 960 -1072 848 -1072
WIRE 1056 -1072 1056 -1120
WIRE 1056 -1072 960 -1072
WIRE 1120 -1072 1120 -1120
WIRE 1120 -1072 1056 -1072
WIRE 1280 -1072 1280 -1120
WIRE 1344 -1072 1344 -1120
WIRE 1344 -1072 1280 -1072
WIRE 1440 -1072 1440 -1120
WIRE 1440 -1072 1344 -1072
WIRE 1552 -1072 1552 -1120
WIRE 1552 -1072 1440 -1072
WIRE 1648 -1072 1552 -1072
WIRE 1760 -1072 1728 -1072
WIRE 2144 -1072 2144 -1104
WIRE 2144 -1072 1936 -1072
WIRE 2256 -1072 2256 -1120
WIRE 2256 -1072 2144 -1072
WIRE 2352 -1072 2352 -1120
WIRE 2352 -1072 2256 -1072
WIRE 2416 -1072 2416 -1104
WIRE 2416 -1072 2352 -1072
WIRE 48 -1024 -16 -1024
WIRE 144 -1024 48 -1024
WIRE 256 -1024 144 -1024
WIRE 352 -1024 256 -1024
WIRE 464 -1024 464 -1072
WIRE 464 -1024 432 -1024
WIRE 640 -1024 640 -1072
WIRE 848 -1024 640 -1024
WIRE 960 -1024 848 -1024
WIRE 1056 -1024 960 -1024
WIRE 1120 -1024 1056 -1024
WIRE 1344 -1024 1280 -1024
WIRE 1440 -1024 1344 -1024
WIRE 1552 -1024 1440 -1024
WIRE 1760 -1024 1760 -1072
WIRE 1760 -1024 1552 -1024
WIRE 1936 -1024 1936 -1072
WIRE 1968 -1024 1936 -1024
WIRE 2144 -1024 2048 -1024
WIRE 2256 -1024 2144 -1024
WIRE 2352 -1024 2256 -1024
WIRE 2416 -1024 2352 -1024
WIRE 848 -992 848 -1024
WIRE 1120 -992 1120 -1024
WIRE 1280 -992 1280 -1024
WIRE 1552 -992 1552 -1024
WIRE -16 -976 -16 -1024
WIRE 48 -976 48 -1024
WIRE 144 -976 144 -1024
WIRE 256 -976 256 -1024
WIRE 960 -976 960 -1024
WIRE 1056 -976 1056 -1024
WIRE 1344 -976 1344 -1024
WIRE 1440 -976 1440 -1024
WIRE 2144 -976 2144 -1024
WIRE 2256 -976 2256 -1024
WIRE 2352 -976 2352 -1024
WIRE 2416 -976 2416 -1024
WIRE -16 -864 -16 -896
WIRE 48 -864 48 -912
WIRE 48 -864 -16 -864
WIRE 144 -864 144 -912
WIRE 144 -864 48 -864
WIRE 256 -864 256 -896
WIRE 256 -864 144 -864
WIRE 464 -864 256 -864
WIRE 672 -864 640 -864
WIRE 848 -864 848 -912
WIRE 848 -864 752 -864
WIRE 960 -864 960 -912
WIRE 960 -864 848 -864
WIRE 1056 -864 1056 -912
WIRE 1056 -864 960 -864
WIRE 1120 -864 1120 -912
WIRE 1120 -864 1056 -864
WIRE 1280 -864 1280 -912
WIRE 1344 -864 1344 -912
WIRE 1344 -864 1280 -864
WIRE 1440 -864 1440 -912
WIRE 1440 -864 1344 -864
WIRE 1552 -864 1552 -912
WIRE 1552 -864 1440 -864
WIRE 1648 -864 1552 -864
WIRE 1760 -864 1728 -864
WIRE 2144 -864 2144 -896
WIRE 2144 -864 1936 -864
WIRE 2256 -864 2256 -912
WIRE 2256 -864 2144 -864
WIRE 2352 -864 2352 -912
WIRE 2352 -864 2256 -864
WIRE 2416 -864 2416 -896
WIRE 2416 -864 2352 -864
WIRE 48 -800 -16 -800
WIRE 144 -800 48 -800
WIRE 256 -800 144 -800
WIRE 352 -800 256 -800
WIRE 464 -800 464 -864
WIRE 464 -800 432 -800
WIRE 640 -800 640 -864
WIRE 848 -800 640 -800
WIRE 960 -800 848 -800
WIRE 1056 -800 960 -800
WIRE 1120 -800 1056 -800
WIRE 1344 -800 1280 -800
WIRE 1440 -800 1344 -800
WIRE 1552 -800 1440 -800
WIRE 1760 -800 1760 -864
WIRE 1760 -800 1552 -800
WIRE 1936 -800 1936 -864
WIRE 1968 -800 1936 -800
WIRE 2144 -800 2048 -800
WIRE 2256 -800 2144 -800
WIRE 2352 -800 2256 -800
WIRE 2416 -800 2352 -800
WIRE 848 -768 848 -800
WIRE 1120 -768 1120 -800
WIRE 1280 -768 1280 -800
WIRE 1552 -768 1552 -800
WIRE -16 -752 -16 -800
WIRE 48 -752 48 -800
WIRE 144 -752 144 -800
WIRE 256 -752 256 -800
WIRE 960 -752 960 -800
WIRE 1056 -752 1056 -800
WIRE 1344 -752 1344 -800
WIRE 1440 -752 1440 -800
WIRE 2144 -752 2144 -800
WIRE 2256 -752 2256 -800
WIRE 2352 -752 2352 -800
WIRE 2416 -752 2416 -800
WIRE -16 -640 -16 -672
WIRE 48 -640 48 -688
WIRE 48 -640 -16 -640
WIRE 144 -640 144 -688
WIRE 144 -640 48 -640
WIRE 256 -640 256 -672
WIRE 256 -640 144 -640
WIRE 464 -640 256 -640
WIRE 672 -640 640 -640
WIRE 848 -640 848 -688
WIRE 848 -640 752 -640
WIRE 960 -640 960 -688
WIRE 960 -640 848 -640
WIRE 1056 -640 1056 -688
WIRE 1056 -640 960 -640
WIRE 1120 -640 1120 -688
WIRE 1120 -640 1056 -640
WIRE 1280 -640 1280 -688
WIRE 1344 -640 1344 -688
WIRE 1344 -640 1280 -640
WIRE 1440 -640 1440 -688
WIRE 1440 -640 1344 -640
WIRE 1552 -640 1552 -688
WIRE 1552 -640 1440 -640
WIRE 1648 -640 1552 -640
WIRE 1760 -640 1728 -640
WIRE 2144 -640 2144 -672
WIRE 2144 -640 1936 -640
WIRE 2256 -640 2256 -688
WIRE 2256 -640 2144 -640
WIRE 2352 -640 2352 -688
WIRE 2352 -640 2256 -640
WIRE 2416 -640 2416 -672
WIRE 2416 -640 2352 -640
WIRE 48 -592 -16 -592
WIRE 144 -592 48 -592
WIRE 256 -592 144 -592
WIRE 352 -592 256 -592
WIRE 464 -592 464 -640
WIRE 464 -592 432 -592
WIRE 640 -592 640 -640
WIRE 848 -592 640 -592
WIRE 960 -592 848 -592
WIRE 1056 -592 960 -592
WIRE 1120 -592 1056 -592
WIRE 1344 -592 1280 -592
WIRE 1440 -592 1344 -592
WIRE 1552 -592 1440 -592
WIRE 1760 -592 1760 -640
WIRE 1760 -592 1552 -592
WIRE 1936 -592 1936 -640
WIRE 1968 -592 1936 -592
WIRE 2144 -592 2048 -592
WIRE 2256 -592 2144 -592
WIRE 2352 -592 2256 -592
WIRE 2416 -592 2352 -592
WIRE 848 -560 848 -592
WIRE 1120 -560 1120 -592
WIRE 1280 -560 1280 -592
WIRE 1552 -560 1552 -592
WIRE -16 -544 -16 -592
WIRE 48 -544 48 -592
WIRE 144 -544 144 -592
WIRE 256 -544 256 -592
WIRE 960 -544 960 -592
WIRE 1056 -544 1056 -592
WIRE 1344 -544 1344 -592
WIRE 1440 -544 1440 -592
WIRE 2144 -544 2144 -592
WIRE 2256 -544 2256 -592
WIRE 2352 -544 2352 -592
WIRE 2416 -544 2416 -592
WIRE -16 -432 -16 -464
WIRE 48 -432 48 -480
WIRE 48 -432 -16 -432
WIRE 144 -432 144 -480
WIRE 144 -432 48 -432
WIRE 256 -432 256 -464
WIRE 256 -432 144 -432
WIRE 464 -432 256 -432
WIRE 672 -432 640 -432
WIRE 848 -432 848 -480
WIRE 848 -432 752 -432
WIRE 960 -432 960 -480
WIRE 960 -432 848 -432
WIRE 1056 -432 1056 -480
WIRE 1056 -432 960 -432
WIRE 1120 -432 1120 -480
WIRE 1120 -432 1056 -432
WIRE 1280 -432 1280 -480
WIRE 1344 -432 1344 -480
WIRE 1344 -432 1280 -432
WIRE 1440 -432 1440 -480
WIRE 1440 -432 1344 -432
WIRE 1552 -432 1552 -480
WIRE 1552 -432 1440 -432
WIRE 1648 -432 1552 -432
WIRE 1760 -432 1728 -432
WIRE 2144 -432 2144 -464
WIRE 2144 -432 1936 -432
WIRE 2256 -432 2256 -480
WIRE 2256 -432 2144 -432
WIRE 2352 -432 2352 -480
WIRE 2352 -432 2256 -432
WIRE 2416 -432 2416 -464
WIRE 2416 -432 2352 -432
WIRE 48 -368 -16 -368
WIRE 144 -368 48 -368
WIRE 256 -368 144 -368
WIRE 352 -368 256 -368
WIRE 464 -368 464 -432
WIRE 464 -368 432 -368
WIRE 640 -368 640 -432
WIRE 848 -368 640 -368
WIRE 960 -368 848 -368
WIRE 1056 -368 960 -368
WIRE 1120 -368 1056 -368
WIRE 1344 -368 1280 -368
WIRE 1440 -368 1344 -368
WIRE 1552 -368 1440 -368
WIRE 1760 -368 1760 -432
WIRE 1760 -368 1552 -368
WIRE 1936 -368 1936 -432
WIRE 1968 -368 1936 -368
WIRE 2144 -368 2048 -368
WIRE 2256 -368 2144 -368
WIRE 2352 -368 2256 -368
WIRE 2416 -368 2352 -368
WIRE 848 -336 848 -368
WIRE 1120 -336 1120 -368
WIRE 1280 -336 1280 -368
WIRE 1552 -336 1552 -368
WIRE -16 -320 -16 -368
WIRE 48 -320 48 -368
WIRE 144 -320 144 -368
WIRE 256 -320 256 -368
WIRE 960 -320 960 -368
WIRE 1056 -320 1056 -368
WIRE 1344 -320 1344 -368
WIRE 1440 -320 1440 -368
WIRE 2144 -320 2144 -368
WIRE 2256 -320 2256 -368
WIRE 2352 -320 2352 -368
WIRE 2416 -320 2416 -368
WIRE -16 -208 -16 -240
WIRE 48 -208 48 -256
WIRE 48 -208 -16 -208
WIRE 144 -208 144 -256
WIRE 144 -208 48 -208
WIRE 256 -208 256 -240
WIRE 256 -208 144 -208
WIRE 464 -208 256 -208
WIRE 672 -208 640 -208
WIRE 848 -208 848 -256
WIRE 848 -208 752 -208
WIRE 960 -208 960 -256
WIRE 960 -208 848 -208
WIRE 1056 -208 1056 -256
WIRE 1056 -208 960 -208
WIRE 1120 -208 1120 -256
WIRE 1120 -208 1056 -208
WIRE 1280 -208 1280 -256
WIRE 1344 -208 1344 -256
WIRE 1344 -208 1280 -208
WIRE 1440 -208 1440 -256
WIRE 1440 -208 1344 -208
WIRE 1552 -208 1552 -256
WIRE 1552 -208 1440 -208
WIRE 1648 -208 1552 -208
WIRE 1760 -208 1728 -208
WIRE 2144 -208 2144 -240
WIRE 2144 -208 1936 -208
WIRE 2256 -208 2256 -256
WIRE 2256 -208 2144 -208
WIRE 2352 -208 2352 -256
WIRE 2352 -208 2256 -208
WIRE 2416 -208 2416 -240
WIRE 2416 -208 2352 -208
WIRE 640 -176 640 -208
WIRE 848 -176 640 -176
WIRE 960 -176 848 -176
WIRE 1056 -176 960 -176
WIRE 1120 -176 1056 -176
WIRE 1344 -176 1280 -176
WIRE 1440 -176 1344 -176
WIRE 1552 -176 1440 -176
WIRE 1760 -176 1760 -208
WIRE 1760 -176 1552 -176
WIRE 48 -160 -16 -160
WIRE 144 -160 48 -160
WIRE 256 -160 144 -160
WIRE 352 -160 256 -160
WIRE 464 -160 464 -208
WIRE 464 -160 432 -160
WIRE 1936 -160 1936 -208
WIRE 1968 -160 1936 -160
WIRE 2144 -160 2048 -160
WIRE 2256 -160 2144 -160
WIRE 2352 -160 2256 -160
WIRE 2416 -160 2352 -160
WIRE 848 -144 848 -176
WIRE 1120 -144 1120 -176
WIRE 1280 -144 1280 -176
WIRE 1552 -144 1552 -176
WIRE 960 -128 960 -176
WIRE 1056 -128 1056 -176
WIRE 1344 -128 1344 -176
WIRE 1440 -128 1440 -176
WIRE -16 -112 -16 -160
WIRE 48 -112 48 -160
WIRE 144 -112 144 -160
WIRE 256 -112 256 -160
WIRE 2144 -112 2144 -160
WIRE 2256 -112 2256 -160
WIRE 2352 -112 2352 -160
WIRE 2416 -112 2416 -160
WIRE 672 -16 640 -16
WIRE 848 -16 848 -64
WIRE 848 -16 752 -16
WIRE 960 -16 960 -64
WIRE 960 -16 848 -16
WIRE 1056 -16 1056 -64
WIRE 1056 -16 960 -16
WIRE 1120 -16 1120 -64
WIRE 1120 -16 1056 -16
WIRE 1280 -16 1280 -64
WIRE 1344 -16 1344 -64
WIRE 1344 -16 1280 -16
WIRE 1440 -16 1440 -64
WIRE 1440 -16 1344 -16
WIRE 1552 -16 1552 -64
WIRE 1552 -16 1440 -16
WIRE 1648 -16 1552 -16
WIRE 1760 -16 1728 -16
WIRE -16 0 -16 -32
WIRE 48 0 48 -48
WIRE 48 0 -16 0
WIRE 144 0 144 -48
WIRE 144 0 48 0
WIRE 256 0 256 -32
WIRE 256 0 144 0
WIRE 464 0 256 0
WIRE 2144 0 2144 -32
WIRE 2144 0 1936 0
WIRE 2256 0 2256 -48
WIRE 2256 0 2144 0
WIRE 2352 0 2352 -48
WIRE 2352 0 2256 0
WIRE 2416 0 2416 -32
WIRE 2416 0 2352 0
WIRE 640 48 640 -16
WIRE 848 48 640 48
WIRE 960 48 848 48
WIRE 1056 48 960 48
WIRE 1120 48 1056 48
WIRE 1344 48 1280 48
WIRE 1440 48 1344 48
WIRE 1552 48 1440 48
WIRE 1760 48 1760 -16
WIRE 1760 48 1552 48
WIRE 48 64 -16 64
WIRE 144 64 48 64
WIRE 256 64 144 64
WIRE 352 64 256 64
WIRE 464 64 464 0
WIRE 464 64 432 64
WIRE 1936 64 1936 0
WIRE 1968 64 1936 64
WIRE 2144 64 2048 64
WIRE 2256 64 2144 64
WIRE 2352 64 2256 64
WIRE 2416 64 2352 64
WIRE 848 80 848 48
WIRE 1120 80 1120 48
WIRE 1280 80 1280 48
WIRE 1552 80 1552 48
WIRE 960 96 960 48
WIRE 1056 96 1056 48
WIRE 1344 96 1344 48
WIRE 1440 96 1440 48
WIRE -16 112 -16 64
WIRE 48 112 48 64
WIRE 144 112 144 64
WIRE 256 112 256 64
WIRE 2144 112 2144 64
WIRE 2256 112 2256 64
WIRE 2352 112 2352 64
WIRE 2416 112 2416 64
WIRE 672 208 640 208
WIRE 848 208 848 160
WIRE 848 208 752 208
WIRE 960 208 960 160
WIRE 960 208 848 208
WIRE 1056 208 1056 160
WIRE 1056 208 960 208
WIRE 1120 208 1120 160
WIRE 1120 208 1056 208
WIRE 1280 208 1280 160
WIRE 1344 208 1344 160
WIRE 1344 208 1280 208
WIRE 1440 208 1440 160
WIRE 1440 208 1344 208
WIRE 1552 208 1552 160
WIRE 1552 208 1440 208
WIRE 1648 208 1552 208
WIRE 1760 208 1728 208
WIRE -16 224 -16 192
WIRE 48 224 48 176
WIRE 48 224 -16 224
WIRE 144 224 144 176
WIRE 144 224 48 224
WIRE 256 224 256 192
WIRE 256 224 144 224
WIRE 464 224 256 224
WIRE 2144 224 2144 192
WIRE 2144 224 1936 224
WIRE 2256 224 2256 176
WIRE 2256 224 2144 224
WIRE 2352 224 2352 176
WIRE 2352 224 2256 224
WIRE 2416 224 2416 192
WIRE 2416 224 2352 224
WIRE 48 256 -16 256
WIRE 144 256 48 256
WIRE 256 256 144 256
WIRE 352 256 256 256
WIRE 464 256 464 224
WIRE 464 256 432 256
WIRE 640 256 640 208
WIRE 848 256 640 256
WIRE 960 256 848 256
WIRE 1056 256 960 256
WIRE 1120 256 1056 256
WIRE 1344 256 1280 256
WIRE 1440 256 1344 256
WIRE 1552 256 1440 256
WIRE 1760 256 1760 208
WIRE 1760 256 1552 256
WIRE 1936 256 1936 224
WIRE 1968 256 1936 256
WIRE 2144 256 2048 256
WIRE 2256 256 2144 256
WIRE 2352 256 2256 256
WIRE 2416 256 2352 256
WIRE 848 288 848 256
WIRE 1120 288 1120 256
WIRE 1280 288 1280 256
WIRE 1552 288 1552 256
WIRE -16 304 -16 256
WIRE 48 304 48 256
WIRE 144 304 144 256
WIRE 256 304 256 256
WIRE 960 304 960 256
WIRE 1056 304 1056 256
WIRE 1344 304 1344 256
WIRE 1440 304 1440 256
WIRE 2144 304 2144 256
WIRE 2256 304 2256 256
WIRE 2352 304 2352 256
WIRE 2416 304 2416 256
WIRE -16 416 -16 384
WIRE 48 416 48 368
WIRE 48 416 -16 416
WIRE 144 416 144 368
WIRE 144 416 48 416
WIRE 256 416 256 384
WIRE 256 416 144 416
WIRE 464 416 256 416
WIRE 672 416 640 416
WIRE 848 416 848 368
WIRE 848 416 752 416
WIRE 960 416 960 368
WIRE 960 416 848 416
WIRE 1056 416 1056 368
WIRE 1056 416 960 416
WIRE 1120 416 1120 368
WIRE 1120 416 1056 416
WIRE 1280 416 1280 368
WIRE 1344 416 1344 368
WIRE 1344 416 1280 416
WIRE 1440 416 1440 368
WIRE 1440 416 1344 416
WIRE 1552 416 1552 368
WIRE 1552 416 1440 416
WIRE 1648 416 1552 416
WIRE 1760 416 1728 416
WIRE 2144 416 2144 384
WIRE 2144 416 1936 416
WIRE 2256 416 2256 368
WIRE 2256 416 2144 416
WIRE 2352 416 2352 368
WIRE 2352 416 2256 416
WIRE 2416 416 2416 384
WIRE 2416 416 2352 416
WIRE 48 480 -16 480
WIRE 144 480 48 480
WIRE 256 480 144 480
WIRE 352 480 256 480
WIRE 464 480 464 416
WIRE 464 480 432 480
WIRE 640 480 640 416
WIRE 848 480 640 480
WIRE 960 480 848 480
WIRE 1056 480 960 480
WIRE 1120 480 1056 480
WIRE 1344 480 1280 480
WIRE 1440 480 1344 480
WIRE 1552 480 1440 480
WIRE 1760 480 1760 416
WIRE 1760 480 1552 480
WIRE 1936 480 1936 416
WIRE 1968 480 1936 480
WIRE 2144 480 2048 480
WIRE 2256 480 2144 480
WIRE 2352 480 2256 480
WIRE 2416 480 2352 480
WIRE 848 512 848 480
WIRE 1120 512 1120 480
WIRE 1280 512 1280 480
WIRE 1552 512 1552 480
WIRE -16 528 -16 480
WIRE 48 528 48 480
WIRE 144 528 144 480
WIRE 256 528 256 480
WIRE 960 528 960 480
WIRE 1056 528 1056 480
WIRE 1344 528 1344 480
WIRE 1440 528 1440 480
WIRE 2144 528 2144 480
WIRE 2256 528 2256 480
WIRE 2352 528 2352 480
WIRE 2416 528 2416 480
WIRE -16 640 -16 608
WIRE 48 640 48 592
WIRE 48 640 -16 640
WIRE 144 640 144 592
WIRE 144 640 48 640
WIRE 256 640 256 608
WIRE 256 640 144 640
WIRE 464 640 256 640
WIRE 672 640 640 640
WIRE 848 640 848 592
WIRE 848 640 752 640
WIRE 960 640 960 592
WIRE 960 640 848 640
WIRE 1056 640 1056 592
WIRE 1056 640 960 640
WIRE 1120 640 1120 592
WIRE 1120 640 1056 640
WIRE 1280 640 1280 592
WIRE 1344 640 1344 592
WIRE 1344 640 1280 640
WIRE 1440 640 1440 592
WIRE 1440 640 1344 640
WIRE 1552 640 1552 592
WIRE 1552 640 1440 640
WIRE 1648 640 1552 640
WIRE 1760 640 1728 640
WIRE 2144 640 2144 608
WIRE 2144 640 1936 640
WIRE 2256 640 2256 592
WIRE 2256 640 2144 640
WIRE 2352 640 2352 592
WIRE 2352 640 2256 640
WIRE 2416 640 2416 608
WIRE 2416 640 2352 640
WIRE 48 688 -16 688
WIRE 144 688 48 688
WIRE 256 688 144 688
WIRE 352 688 256 688
WIRE 464 688 464 640
WIRE 464 688 432 688
WIRE 640 688 640 640
WIRE 848 688 640 688
WIRE 960 688 848 688
WIRE 1056 688 960 688
WIRE 1120 688 1056 688
WIRE 1344 688 1280 688
WIRE 1440 688 1344 688
WIRE 1552 688 1440 688
WIRE 1760 688 1760 640
WIRE 1760 688 1552 688
WIRE 1936 688 1936 640
WIRE 1968 688 1936 688
WIRE 2144 688 2048 688
WIRE 2256 688 2144 688
WIRE 2352 688 2256 688
WIRE 2416 688 2352 688
WIRE 848 720 848 688
WIRE 1120 720 1120 688
WIRE 1280 720 1280 688
WIRE 1552 720 1552 688
WIRE -16 736 -16 688
WIRE 48 736 48 688
WIRE 144 736 144 688
WIRE 256 736 256 688
WIRE 960 736 960 688
WIRE 1056 736 1056 688
WIRE 1344 736 1344 688
WIRE 1440 736 1440 688
WIRE 2144 736 2144 688
WIRE 2256 736 2256 688
WIRE 2352 736 2352 688
WIRE 2416 736 2416 688
WIRE -16 848 -16 816
WIRE 48 848 48 800
WIRE 48 848 -16 848
WIRE 144 848 144 800
WIRE 144 848 48 848
WIRE 256 848 256 816
WIRE 256 848 144 848
WIRE 464 848 256 848
WIRE 672 848 640 848
WIRE 848 848 848 800
WIRE 848 848 752 848
WIRE 960 848 960 800
WIRE 960 848 848 848
WIRE 1056 848 1056 800
WIRE 1056 848 960 848
WIRE 1120 848 1120 800
WIRE 1120 848 1056 848
WIRE 1280 848 1280 800
WIRE 1344 848 1344 800
WIRE 1344 848 1280 848
WIRE 1440 848 1440 800
WIRE 1440 848 1344 848
WIRE 1552 848 1552 800
WIRE 1552 848 1440 848
WIRE 1648 848 1552 848
WIRE 1760 848 1728 848
WIRE 2144 848 2144 816
WIRE 2144 848 1936 848
WIRE 2256 848 2256 800
WIRE 2256 848 2144 848
WIRE 2352 848 2352 800
WIRE 2352 848 2256 848
WIRE 2416 848 2416 816
WIRE 2416 848 2352 848
WIRE 48 912 -16 912
WIRE 144 912 48 912
WIRE 256 912 144 912
WIRE 352 912 256 912
WIRE 464 912 464 848
WIRE 464 912 432 912
WIRE 640 912 640 848
WIRE 848 912 640 912
WIRE 960 912 848 912