Version 4
SHEET 1 1844 680
WIRE 112 -128 -16 -128
WIRE 288 -128 112 -128
WIRE 496 -128 288 -128
WIRE 688 -128 496 -128
WIRE 1104 -128 768 -128
WIRE -16 112 -16 -128
WIRE 112 112 112 -128
WIRE 288 112 288 -128
WIRE 496 112 496 -128
WIRE -16 416 -16 192
WIRE 112 416 112 176
WIRE 112 416 -16 416
WIRE 288 416 288 176
WIRE 288 416 112 416
WIRE 496 416 496 192
WIRE 496 416 288 416
WIRE 1104 416 496 416
WIRE 1104 448 1104 416
FLAG 1104 448 0
SYMBOL current -16 192 R180
WINDOW 0 24 80 Left 2
WINDOW 3 24 0 Left 2
WINDOW 123 0 0 Left 2
WINDOW 39 0 0 Left 2
SYMATTR InstName I1
SYMATTR Value 10
SYMBOL cap 96 112 R0
SYMATTR InstName C1
SYMATTR Value {Cpara}
SYMBOL diode 272 112 R0
SYMATTR InstName D1
SYMATTR Value diode1
SYMBOL res 480 96 R0
SYMATTR InstName R1
SYMATTR Value {Rshunt}
SYMBOL res 784 -144 R90
WINDOW 0 0 56 VBottom 2
WINDOW 3 32 56 VTop 2
SYMATTR InstName R2
SYMATTR Value {Rseries}
TEXT -24 -208 Left 2 !.model diode1 D(IS=5e-6 N=1.6)
TEXT -72 472 Left 2 !.tran 1m
TEXT -24 -232 Left 2 !.param Rshunt = 830
TEXT -24 -256 Left 2 !.param Rseries = 0.33m
TEXT -24 -184 Left 2 !.param Cpara = 12u
