Version 4
SHEET 1 2916 2224
WIRE 48 -2896 -16 -2896
WIRE 144 -2896 48 -2896
WIRE 256 -2896 144 -2896
WIRE 352 -2896 256 -2896
WIRE 848 -2896 432 -2896
WIRE 960 -2896 848 -2896
WIRE 1056 -2896 960 -2896
WIRE 1120 -2896 1056 -2896
WIRE 1344 -2896 1280 -2896
WIRE 1440 -2896 1344 -2896
WIRE 1552 -2896 1440 -2896
WIRE 1968 -2896 1552 -2896
WIRE 2144 -2896 2048 -2896
WIRE 2256 -2896 2144 -2896
WIRE 2352 -2896 2256 -2896
WIRE 2416 -2896 2352 -2896
WIRE 848 -2864 848 -2896
WIRE 1120 -2864 1120 -2896
WIRE 1280 -2864 1280 -2896
WIRE 1552 -2864 1552 -2896
WIRE -16 -2848 -16 -2896
WIRE 48 -2848 48 -2896
WIRE 144 -2848 144 -2896
WIRE 256 -2848 256 -2896
WIRE 960 -2848 960 -2896
WIRE 1056 -2848 1056 -2896
WIRE 1344 -2848 1344 -2896
WIRE 1440 -2848 1440 -2896
WIRE 2144 -2848 2144 -2896
WIRE 2256 -2848 2256 -2896
WIRE 2352 -2848 2352 -2896
WIRE 2416 -2848 2416 -2896
WIRE -16 -2736 -16 -2768
WIRE 48 -2736 48 -2784
WIRE 48 -2736 -16 -2736
WIRE 144 -2736 144 -2784
WIRE 144 -2736 48 -2736
WIRE 256 -2736 256 -2768
WIRE 256 -2736 144 -2736
WIRE 464 -2736 256 -2736
WIRE 672 -2736 640 -2736
WIRE 848 -2736 848 -2784
WIRE 848 -2736 752 -2736
WIRE 960 -2736 960 -2784
WIRE 960 -2736 848 -2736
WIRE 1056 -2736 1056 -2784
WIRE 1056 -2736 960 -2736
WIRE 1120 -2736 1120 -2784
WIRE 1120 -2736 1056 -2736
WIRE 1280 -2736 1280 -2784
WIRE 1344 -2736 1344 -2784
WIRE 1344 -2736 1280 -2736
WIRE 1440 -2736 1440 -2784
WIRE 1440 -2736 1344 -2736
WIRE 1552 -2736 1552 -2784
WIRE 1552 -2736 1440 -2736
WIRE 1648 -2736 1552 -2736
WIRE 1760 -2736 1728 -2736
WIRE 2144 -2736 2144 -2768
WIRE 2144 -2736 1936 -2736
WIRE 2256 -2736 2256 -2784
WIRE 2256 -2736 2144 -2736
WIRE 2352 -2736 2352 -2784
WIRE 2352 -2736 2256 -2736
WIRE 2416 -2736 2416 -2768
WIRE 2416 -2736 2352 -2736
WIRE 48 -2672 -16 -2672
WIRE 144 -2672 48 -2672
WIRE 256 -2672 144 -2672
WIRE 352 -2672 256 -2672
WIRE 464 -2672 464 -2736
WIRE 464 -2672 432 -2672
WIRE 640 -2672 640 -2736
WIRE 848 -2672 640 -2672
WIRE 960 -2672 848 -2672
WIRE 1056 -2672 960 -2672
WIRE 1120 -2672 1056 -2672
WIRE 1344 -2672 1280 -2672
WIRE 1440 -2672 1344 -2672
WIRE 1552 -2672 1440 -2672
WIRE 1760 -2672 1760 -2736
WIRE 1760 -2672 1552 -2672
WIRE 1936 -2672 1936 -2736
WIRE 1968 -2672 1936 -2672
WIRE 2144 -2672 2048 -2672
WIRE 2256 -2672 2144 -2672
WIRE 2352 -2672 2256 -2672
WIRE 2416 -2672 2352 -2672
WIRE 848 -2640 848 -2672
WIRE 1120 -2640 1120 -2672
WIRE 1280 -2640 1280 -2672
WIRE 1552 -2640 1552 -2672
WIRE -16 -2624 -16 -2672
WIRE 48 -2624 48 -2672
WIRE 144 -2624 144 -2672
WIRE 256 -2624 256 -2672
WIRE 960 -2624 960 -2672
WIRE 1056 -2624 1056 -2672
WIRE 1344 -2624 1344 -2672
WIRE 1440 -2624 1440 -2672
WIRE 2144 -2624 2144 -2672
WIRE 2256 -2624 2256 -2672
WIRE 2352 -2624 2352 -2672
WIRE 2416 -2624 2416 -2672
WIRE -16 -2512 -16 -2544
WIRE 48 -2512 48 -2560
WIRE 48 -2512 -16 -2512
WIRE 144 -2512 144 -2560
WIRE 144 -2512 48 -2512
WIRE 256 -2512 256 -2544
WIRE 256 -2512 144 -2512
WIRE 464 -2512 256 -2512
WIRE 672 -2512 640 -2512
WIRE 848 -2512 848 -2560
WIRE 848 -2512 752 -2512
WIRE 960 -2512 960 -2560
WIRE 960 -2512 848 -2512
WIRE 1056 -2512 1056 -2560
WIRE 1056 -2512 960 -2512
WIRE 1120 -2512 1120 -2560
WIRE 1120 -2512 1056 -2512
WIRE 1280 -2512 1280 -2560
WIRE 1344 -2512 1344 -2560
WIRE 1344 -2512 1280 -2512
WIRE 1440 -2512 1440 -2560
WIRE 1440 -2512 1344 -2512
WIRE 1552 -2512 1552 -2560
WIRE 1552 -2512 1440 -2512
WIRE 1648 -2512 1552 -2512
WIRE 1760 -2512 1728 -2512
WIRE 2144 -2512 2144 -2544
WIRE 2144 -2512 1936 -2512
WIRE 2256 -2512 2256 -2560
WIRE 2256 -2512 2144 -2512
WIRE 2352 -2512 2352 -2560
WIRE 2352 -2512 2256 -2512
WIRE 2416 -2512 2416 -2544
WIRE 2416 -2512 2352 -2512
WIRE 48 -2448 -16 -2448
WIRE 144 -2448 48 -2448
WIRE 256 -2448 144 -2448
WIRE 352 -2448 256 -2448
WIRE 464 -2448 464 -2512
WIRE 464 -2448 432 -2448
WIRE 640 -2448 640 -2512
WIRE 848 -2448 640 -2448
WIRE 960 -2448 848 -2448
WIRE 1056 -2448 960 -2448
WIRE 1120 -2448 1056 -2448
WIRE 1344 -2448 1280 -2448
WIRE 1440 -2448 1344 -2448
WIRE 1552 -2448 1440 -2448
WIRE 1760 -2448 1760 -2512
WIRE 1760 -2448 1552 -2448
WIRE 1936 -2448 1936 -2512
WIRE 1968 -2448 1936 -2448
WIRE 2144 -2448 2048 -2448
WIRE 2256 -2448 2144 -2448
WIRE 2352 -2448 2256 -2448
WIRE 2416 -2448 2352 -2448
WIRE 848 -2416 848 -2448
WIRE 1120 -2416 1120 -2448
WIRE 1280 -2416 1280 -2448
WIRE 1552 -2416 1552 -2448
WIRE -16 -2400 -16 -2448
WIRE 48 -2400 48 -2448
WIRE 144 -2400 144 -2448
WIRE 256 -2400 256 -2448
WIRE 960 -2400 960 -2448
WIRE 1056 -2400 1056 -2448
WIRE 1344 -2400 1344 -2448
WIRE 1440 -2400 1440 -2448
WIRE 2144 -2400 2144 -2448
WIRE 2256 -2400 2256 -2448
WIRE 2352 -2400 2352 -2448
WIRE 2416 -2400 2416 -2448
WIRE -16 -2288 -16 -2320
WIRE 48 -2288 48 -2336
WIRE 48 -2288 -16 -2288
WIRE 144 -2288 144 -2336
WIRE 144 -2288 48 -2288
WIRE 256 -2288 256 -2320
WIRE 256 -2288 144 -2288
WIRE 464 -2288 256 -2288
WIRE 672 -2288 640 -2288
WIRE 848 -2288 848 -2336
WIRE 848 -2288 752 -2288
WIRE 960 -2288 960 -2336
WIRE 960 -2288 848 -2288
WIRE 1056 -2288 1056 -2336
WIRE 1056 -2288 960 -2288
WIRE 1120 -2288 1120 -2336
WIRE 1120 -2288 1056 -2288
WIRE 1280 -2288 1280 -2336
WIRE 1344 -2288 1344 -2336
WIRE 1344 -2288 1280 -2288
WIRE 1440 -2288 1440 -2336
WIRE 1440 -2288 1344 -2288
WIRE 1552 -2288 1552 -2336
WIRE 1552 -2288 1440 -2288
WIRE 1648 -2288 1552 -2288
WIRE 1760 -2288 1728 -2288
WIRE 2144 -2288 2144 -2320
WIRE 2144 -2288 1936 -2288
WIRE 2256 -2288 2256 -2336
WIRE 2256 -2288 2144 -2288
WIRE 2352 -2288 2352 -2336
WIRE 2352 -2288 2256 -2288
WIRE 2416 -2288 2416 -2320
WIRE 2416 -2288 2352 -2288
WIRE 48 -2224 -16 -2224
WIRE 144 -2224 48 -2224
WIRE 256 -2224 144 -2224
WIRE 352 -2224 256 -2224
WIRE 464 -2224 464 -2288
WIRE 464 -2224 432 -2224
WIRE 640 -2224 640 -2288
WIRE 848 -2224 640 -2224
WIRE 960 -2224 848 -2224
WIRE 1056 -2224 960 -2224
WIRE 1120 -2224 1056 -2224
WIRE 1344 -2224 1280 -2224
WIRE 1440 -2224 1344 -2224
WIRE 1552 -2224 1440 -2224
WIRE 1760 -2224 1760 -2288
WIRE 1760 -2224 1552 -2224
WIRE 1936 -2224 1936 -2288
WIRE 1968 -2224 1936 -2224
WIRE 2144 -2224 2048 -2224
WIRE 2256 -2224 2144 -2224
WIRE 2352 -2224 2256 -2224
WIRE 2416 -2224 2352 -2224
WIRE 848 -2192 848 -2224
WIRE 1120 -2192 1120 -2224
WIRE 1280 -2192 1280 -2224
WIRE 1552 -2192 1552 -2224
WIRE -16 -2176 -16 -2224
WIRE 48 -2176 48 -2224
WIRE 144 -2176 144 -2224
WIRE 256 -2176 256 -2224
WIRE 960 -2176 960 -2224
WIRE 1056 -2176 1056 -2224
WIRE 1344 -2176 1344 -2224
WIRE 1440 -2176 1440 -2224
WIRE 2144 -2176 2144 -2224
WIRE 2256 -2176 2256 -2224
WIRE 2352 -2176 2352 -2224
WIRE 2416 -2176 2416 -2224
WIRE -16 -2064 -16 -2096
WIRE 48 -2064 48 -2112
WIRE 48 -2064 -16 -2064
WIRE 144 -2064 144 -2112
WIRE 144 -2064 48 -2064
WIRE 256 -2064 256 -2096
WIRE 256 -2064 144 -2064
WIRE 464 -2064 256 -2064
WIRE 672 -2064 640 -2064
WIRE 848 -2064 848 -2112
WIRE 848 -2064 752 -2064
WIRE 960 -2064 960 -2112
WIRE 960 -2064 848 -2064
WIRE 1056 -2064 1056 -2112
WIRE 1056 -2064 960 -2064
WIRE 1120 -2064 1120 -2112
WIRE 1120 -2064 1056 -2064
WIRE 1280 -2064 1280 -2112
WIRE 1344 -2064 1344 -2112
WIRE 1344 -2064 1280 -2064
WIRE 1440 -2064 1440 -2112
WIRE 1440 -2064 1344 -2064
WIRE 1552 -2064 1552 -2112
WIRE 1552 -2064 1440 -2064
WIRE 1648 -2064 1552 -2064
WIRE 1760 -2064 1728 -2064
WIRE 2144 -2064 2144 -2096
WIRE 2144 -2064 1936 -2064
WIRE 2256 -2064 2256 -2112
WIRE 2256 -2064 2144 -2064
WIRE 2352 -2064 2352 -2112
WIRE 2352 -2064 2256 -2064
WIRE 2416 -2064 2416 -2096
WIRE 2416 -2064 2352 -2064
WIRE 48 -2000 -16 -2000
WIRE 144 -2000 48 -2000
WIRE 256 -2000 144 -2000
WIRE 352 -2000 256 -2000
WIRE 464 -2000 464 -2064
WIRE 464 -2000 432 -2000
WIRE 640 -2000 640 -2064
WIRE 848 -2000 640 -2000
WIRE 960 -2000 848 -2000
WIRE 1056 -2000 960 -2000
WIRE 1120 -2000 1056 -2000
WIRE 1344 -2000 1280 -2000
WIRE 1440 -2000 1344 -2000
WIRE 1552 -2000 1440 -2000
WIRE 1760 -2000 1760 -2064
WIRE 1760 -2000 1552 -2000
WIRE 1936 -2000 1936 -2064
WIRE 1968 -2000 1936 -2000
WIRE 2144 -2000 2048 -2000
WIRE 2256 -2000 2144 -2000
WIRE 2352 -2000 2256 -2000
WIRE 2416 -2000 2352 -2000
WIRE 848 -1968 848 -2000
WIRE 1120 -1968 1120 -2000
WIRE 1280 -1968 1280 -2000
WIRE 1552 -1968 1552 -2000
WIRE -16 -1952 -16 -2000
WIRE 48 -1952 48 -2000
WIRE 144 -1952 144 -2000
WIRE 256 -1952 256 -2000
WIRE 960 -1952 960 -2000
WIRE 1056 -1952 1056 -2000
WIRE 1344 -1952 1344 -2000
WIRE 1440 -1952 1440 -2000
WIRE 2144 -1952 2144 -2000
WIRE 2256 -1952 2256 -2000
WIRE 2352 -1952 2352 -2000
WIRE 2416 -1952 2416 -2000
WIRE -16 -1840 -16 -1872
WIRE 48 -1840 48 -1888
WIRE 48 -1840 -16 -1840
WIRE 144 -1840 144 -1888
WIRE 144 -1840 48 -1840
WIRE 256 -1840 256 -1872
WIRE 256 -1840 144 -1840
WIRE 464 -1840 256 -1840
WIRE 672 -1840 640 -1840
WIRE 848 -1840 848 -1888
WIRE 848 -1840 752 -1840
WIRE 960 -1840 960 -1888
WIRE 960 -1840 848 -1840
WIRE 1056 -1840 1056 -1888
WIRE 1056 -1840 960 -1840
WIRE 1120 -1840 1120 -1888
WIRE 1120 -1840 1056 -1840
WIRE 1280 -1840 1280 -1888
WIRE 1344 -1840 1344 -1888
WIRE 1344 -1840 1280 -1840
WIRE 1440 -1840 1440 -1888
WIRE 1440 -1840 1344 -1840
WIRE 1552 -1840 1552 -1888
WIRE 1552 -1840 1440 -1840
WIRE 1648 -1840 1552 -1840
WIRE 1760 -1840 1728 -1840
WIRE 2144 -1840 2144 -1872
WIRE 2144 -1840 1936 -1840
WIRE 2256 -1840 2256 -1888
WIRE 2256 -1840 2144 -1840
WIRE 2352 -1840 2352 -1888
WIRE 2352 -1840 2256 -1840
WIRE 2416 -1840 2416 -1872
WIRE 2416 -1840 2352 -1840
WIRE 48 -1776 -16 -1776
WIRE 144 -1776 48 -1776
WIRE 256 -1776 144 -1776
WIRE 352 -1776 256 -1776
WIRE 464 -1776 464 -1840
WIRE 464 -1776 432 -1776
WIRE 640 -1776 640 -1840
WIRE 848 -1776 640 -1776
WIRE 960 -1776 848 -1776
WIRE 1056 -1776 960 -1776
WIRE 1120 -1776 1056 -1776
WIRE 1344 -1776 1280 -1776
WIRE 1440 -1776 1344 -1776
WIRE 1552 -1776 1440 -1776
WIRE 1760 -1776 1760 -1840
WIRE 1760 -1776 1552 -1776
WIRE 1936 -1776 1936 -1840
WIRE 1968 -1776 1936 -1776
WIRE 2144 -1776 2048 -1776
WIRE 2256 -1776 2144 -1776
WIRE 2352 -1776 2256 -1776
WIRE 2416 -1776 2352 -1776
WIRE 848 -1744 848 -1776
WIRE 1120 -1744 1120 -1776
WIRE 1280 -1744 1280 -1776
WIRE 1552 -1744 1552 -1776
WIRE -16 -1728 -16 -1776
WIRE 48 -1728 48 -1776
WIRE 144 -1728 144 -1776
WIRE 256 -1728 256 -1776
WIRE 960 -1728 960 -1776
WIRE 1056 -1728 1056 -1776
WIRE 1344 -1728 1344 -1776
WIRE 1440 -1728 1440 -1776
WIRE 2144 -1728 2144 -1776
WIRE 2256 -1728 2256 -1776
WIRE 2352 -1728 2352 -1776
WIRE 2416 -1728 2416 -1776
WIRE -16 -1616 -16 -1648
WIRE 48 -1616 48 -1664
WIRE 48 -1616 -16 -1616
WIRE 144 -1616 144 -1664
WIRE 144 -1616 48 -1616
WIRE 256 -1616 256 -1648
WIRE 256 -1616 144 -1616
WIRE 464 -1616 256 -1616
WIRE 672 -1616 640 -1616
WIRE 848 -1616 848 -1664
WIRE 848 -1616 752 -1616
WIRE 960 -1616 960 -1664
WIRE 960 -1616 848 -1616
WIRE 1056 -1616 1056 -1664
WIRE 1056 -1616 960 -1616
WIRE 1120 -1616 1120 -1664
WIRE 1120 -1616 1056 -1616
WIRE 1280 -1616 1280 -1664
WIRE 1344 -1616 1344 -1664
WIRE 1344 -1616 1280 -1616
WIRE 1440 -1616 1440 -1664
WIRE 1440 -1616 1344 -1616
WIRE 1552 -1616 1552 -1664
WIRE 1552 -1616 1440 -1616
WIRE 1648 -1616 1552 -1616
WIRE 1760 -1616 1728 -1616
WIRE 2144 -1616 2144 -1648
WIRE 2144 -1616 1936 -1616
WIRE 2256 -1616 2256 -1664
WIRE 2256 -1616 2144 -1616
WIRE 2352 -1616 2352 -1664
WIRE 2352 -1616 2256 -1616
WIRE 2416 -1616 2416 -1648
WIRE 2416 -1616 2352 -1616
WIRE 48 -1552 -16 -1552
WIRE 144 -1552 48 -1552
WIRE 256 -1552 144 -1552
WIRE 352 -1552 256 -1552
WIRE 464 -1552 464 -1616
WIRE 464 -1552 432 -1552
WIRE 640 -1552 640 -1616
WIRE 848 -1552 640 -1552
WIRE 960 -1552 848 -1552
WIRE 1056 -1552 960 -1552
WIRE 1120 -1552 1056 -1552
WIRE 1344 -1552 1280 -1552
WIRE 1440 -1552 1344 -1552
WIRE 1552 -1552 1440 -1552
WIRE 1760 -1552 1760 -1616
WIRE 1760 -1552 1552 -1552
WIRE 1936 -1552 1936 -1616
WIRE 1968 -1552 1936 -1552
WIRE 2144 -1552 2048 -1552
WIRE 2256 -1552 2144 -1552
WIRE 2352 -1552 2256 -1552
WIRE 2416 -1552 2352 -1552
WIRE 848 -1520 848 -1552
WIRE 1120 -1520 1120 -1552
WIRE 1280 -1520 1280 -1552
WIRE 1552 -1520 1552 -1552
WIRE -16 -1504 -16 -1552
WIRE 48 -1504 48 -1552
WIRE 144 -1504 144 -1552
WIRE 256 -1504 256 -1552
WIRE 960 -1504 960 -1552
WIRE 1056 -1504 1056 -1552
WIRE 1344 -1504 1344 -1552
WIRE 1440 -1504 1440 -1552
WIRE 2144 -1504 2144 -1552
WIRE 2256 -1504 2256 -1552
WIRE 2352 -1504 2352 -1552
WIRE 2416 -1504 2416 -1552
WIRE -16 -1392 -16 -1424
WIRE 48 -1392 48 -1440
WIRE 48 -1392 -16 -1392
WIRE 144 -1392 144 -1440
WIRE 144 -1392 48 -1392
WIRE 256 -1392 256 -1424
WIRE 256 -1392 144 -1392
WIRE 464 -1392 256 -1392
WIRE 672 -1392 640 -1392
WIRE 848 -1392 848 -1440
WIRE 848 -1392 752 -1392
WIRE 960 -1392 960 -1440
WIRE 960 -1392 848 -1392
WIRE 1056 -1392 1056 -1440
WIRE 1056 -1392 960 -1392
WIRE 1120 -1392 1120 -1440
WIRE 1120 -1392 1056 -1392
WIRE 1280 -1392 1280 -1440
WIRE 1344 -1392 1344 -1440
WIRE 1344 -1392 1280 -1392
WIRE 1440 -1392 1440 -1440
WIRE 1440 -1392 1344 -1392
WIRE 1552 -1392 1552 -1440
WIRE 1552 -1392 1440 -1392
WIRE 1648 -1392 1552 -1392
WIRE 1760 -1392 1728 -1392
WIRE 2144 -1392 2144 -1424
WIRE 2144 -1392 1936 -1392
WIRE 2256 -1392 2256 -1440
WIRE 2256 -1392 2144 -1392
WIRE 2352 -1392 2352 -1440
WIRE 2352 -1392 2256 -1392
WIRE 2416 -1392 2416 -1424
WIRE 2416 -1392 2352 -1392
WIRE 48 -1328 -16 -1328
WIRE 144 -1328 48 -1328
WIRE 256 -1328 144 -1328
WIRE 352 -1328 256 -1328
WIRE 464 -1328 464 -1392
WIRE 464 -1328 432 -1328
WIRE 640 -1328 640 -1392
WIRE 848 -1328 640 -1328
WIRE 960 -1328 848 -1328
WIRE 1056 -1328 960 -1328
WIRE 1120 -1328 1056 -1328
WIRE 1344 -1328 1280 -1328
WIRE 1440 -1328 1344 -1328
WIRE 1552 -1328 1440 -1328
WIRE 1760 -1328 1760 -1392
WIRE 1760 -1328 1552 -1328
WIRE 1936 -1328 1936 -1392
WIRE 1968 -1328 1936 -1328
WIRE 2144 -1328 2048 -1328
WIRE 2256 -1328 2144 -1328
WIRE 2352 -1328 2256 -1328
WIRE 2416 -1328 2352 -1328
WIRE 848 -1296 848 -1328
WIRE 1120 -1296 1120 -1328
WIRE 1280 -1296 1280 -1328
WIRE 1552 -1296 1552 -1328
WIRE -16 -1280 -16 -1328
WIRE 48 -1280 48 -1328
WIRE 144 -1280 144 -1328
WIRE 256 -1280 256 -1328
WIRE 960 -1280 960 -1328
WIRE 1056 -1280 1056 -1328
WIRE 1344 -1280 1344 -1328
WIRE 1440 -1280 1440 -1328
WIRE 2144 -1280 2144 -1328
WIRE 2256 -1280 2256 -1328
WIRE 2352 -1280 2352 -1328
WIRE 2416 -1280 2416 -1328
WIRE -16 -1168 -16 -1200
WIRE 48 -1168 48 -1216
WIRE 48 -1168 -16 -1168
WIRE 144 -1168 144 -1216
WIRE 144 -1168 48 -1168
WIRE 256 -1168 256 -1200
WIRE 256 -1168 144 -1168
WIRE 464 -1168 256 -1168
WIRE 672 -1168 640 -1168
WIRE 848 -1168 848 -1216
WIRE 848 -1168 752 -1168
WIRE 960 -1168 960 -1216
WIRE 960 -1168 848 -1168
WIRE 1056 -1168 1056 -1216
WIRE 1056 -1168 960 -1168
WIRE 1120 -1168 1120 -1216
WIRE 1120 -1168 1056 -1168
WIRE 1280 -1168 1280 -1216
WIRE 1344 -1168 1344 -1216
WIRE 1344 -1168 1280 -1168
WIRE 1440 -1168 1440 -1216
WIRE 1440 -1168 1344 -1168
WIRE 1552 -1168 1552 -1216
WIRE 1552 -1168 1440 -1168
WIRE 1648 -1168 1552 -1168
WIRE 1760 -1168 1728 -1168
WIRE 2144 -1168 2144 -1200
WIRE 2144 -1168 1936 -1168
WIRE 2256 -1168 2256 -1216
WIRE 2256 -1168 2144 -1168
WIRE 2352 -1168 2352 -1216
WIRE 2352 -1168 2256 -1168
WIRE 2416 -1168 2416 -1200
WIRE 2416 -1168 2352 -1168
WIRE 48 -1104 -16 -1104
WIRE 144 -1104 48 -1104
WIRE 256 -1104 144 -1104
WIRE 352 -1104 256 -1104
WIRE 464 -1104 464 -1168
WIRE 464 -1104 432 -1104
WIRE 640 -1104 640 -1168
WIRE 848 -1104 640 -1104
WIRE 960 -1104 848 -1104
WIRE 1056 -1104 960 -1104
WIRE 1120 -1104 1056 -1104
WIRE 1344 -1104 1280 -1104
WIRE 1440 -1104 1344 -1104
WIRE 1552 -1104 1440 -1104
WIRE 1760 -1104 1760 -1168
WIRE 1760 -1104 1552 -1104
WIRE 1936 -1104 1936 -1168
WIRE 1968 -1104 1936 -1104
WIRE 2144 -1104 2048 -1104
WIRE 2256 -1104 2144 -1104
WIRE 2352 -1104 2256 -1104
WIRE 2416 -1104 2352 -1104
WIRE 848 -1072 848 -1104
WIRE 1120 -1072 1120 -1104
WIRE 1280 -1072 1280 -1104
WIRE 1552 -1072 1552 -1104
WIRE -16 -1056 -16 -1104
WIRE 48 -1056 48 -1104
WIRE 144 -1056 144 -1104
WIRE 256 -1056 256 -1104
WIRE 960 -1056 960 -1104
WIRE 1056 -1056 1056 -1104
WIRE 1344 -1056 1344 -1104
WIRE 1440 -1056 1440 -1104
WIRE 2144 -1056 2144 -1104
WIRE 2256 -1056 2256 -1104
WIRE 2352 -1056 2352 -1104
WIRE 2416 -1056 2416 -1104
WIRE -16 -944 -16 -976
WIRE 48 -944 48 -992
WIRE 48 -944 -16 -944
WIRE 144 -944 144 -992
WIRE 144 -944 48 -944
WIRE 256 -944 256 -976
WIRE 256 -944 144 -944
WIRE 464 -944 256 -944
WIRE 672 -944 640 -944
WIRE 848 -944 848 -992
WIRE 848 -944 752 -944
WIRE 960 -944 960 -992
WIRE 960 -944 848 -944
WIRE 1056 -944 1056 -992
WIRE 1056 -944 960 -944
WIRE 1120 -944 1120 -992
WIRE 1120 -944 1056 -944
WIRE 1280 -944 1280 -992
WIRE 1344 -944 1344 -992
WIRE 1344 -944 1280 -944
WIRE 1440 -944 1440 -992
WIRE 1440 -944 1344 -944
WIRE 1552 -944 1552 -992
WIRE 1552 -944 1440 -944
WIRE 1648 -944 1552 -944
WIRE 1760 -944 1728 -944
WIRE 2144 -944 2144 -976
WIRE 2144 -944 1936 -944
WIRE 2256 -944 2256 -992
WIRE 2256 -944 2144 -944
WIRE 2352 -944 2352 -992
WIRE 2352 -944 2256 -944
WIRE 2416 -944 2416 -976
WIRE 2416 -944 2352 -944
WIRE 48 -880 -16 -880
WIRE 144 -880 48 -880
WIRE 256 -880 144 -880
WIRE 352 -880 256 -880
WIRE 464 -880 464 -944
WIRE 464 -880 432 -880
WIRE 640 -880 640 -944
WIRE 848 -880 640 -880
WIRE 960 -880 848 -880
WIRE 1056 -880 960 -880
WIRE 1120 -880 1056 -880
WIRE 1344 -880 1280 -880
WIRE 1440 -880 1344 -880
WIRE 1552 -880 1440 -880
WIRE 1760 -880 1760 -944
WIRE 1760 -880 1552 -880
WIRE 1936 -880 1936 -944
WIRE 1968 -880 1936 -880
WIRE 2144 -880 2048 -880
WIRE 2256 -880 2144 -880
WIRE 2352 -880 2256 -880
WIRE 2416 -880 2352 -880
WIRE 848 -848 848 -880
WIRE 1120 -848 1120 -880
WIRE 1280 -848 1280 -880
WIRE 1552 -848 1552 -880
WIRE -16 -832 -16 -880
WIRE 48 -832 48 -880
WIRE 144 -832 144 -880
WIRE 256 -832 256 -880
WIRE 960 -832 960 -880
WIRE 1056 -832 1056 -880
WIRE 1344 -832 1344 -880
WIRE 1440 -832 1440 -880
WIRE 2144 -832 2144 -880
WIRE 2256 -832 2256 -880
WIRE 2352 -832 2352 -880
WIRE 2416 -832 2416 -880
WIRE -16 -720 -16 -752
WIRE 48 -720 48 -768
WIRE 48 -720 -16 -720
WIRE 144 -720 144 -768
WIRE 144 -720 48 -720
WIRE 256 -720 256 -752
WIRE 256 -720 144 -720
WIRE 464 -720 256 -720
WIRE 672 -720 640 -720
WIRE 848 -720 848 -768
WIRE 848 -720 752 -720
WIRE 960 -720 960 -768
WIRE 960 -720 848 -720
WIRE 1056 -720 1056 -768
WIRE 1056 -720 960 -720
WIRE 1120 -720 1120 -768
WIRE 1120 -720 1056 -720
WIRE 1280 -720 1280 -768
WIRE 1344 -720 1344 -768
WIRE 1344 -720 1280 -720
WIRE 1440 -720 1440 -768
WIRE 1440 -720 1344 -720
WIRE 1552 -720 1552 -768
WIRE 1552 -720 1440 -720
WIRE 1648 -720 1552 -720
WIRE 1760 -720 1728 -720
WIRE 2144 -720 2144 -752
WIRE 2144 -720 1936 -720
WIRE 2256 -720 2256 -768
WIRE 2256 -720 2144 -720
WIRE 2352 -720 2352 -768
WIRE 2352 -720 2256 -720
WIRE 2416 -720 2416 -752
WIRE 2416 -720 2352 -720
WIRE 48 -656 -16 -656
WIRE 144 -656 48 -656
WIRE 256 -656 144 -656
WIRE 352 -656 256 -656
WIRE 464 -656 464 -720
WIRE 464 -656 432 -656
WIRE 640 -656 640 -720
WIRE 848 -656 640 -656
WIRE 960 -656 848 -656
WIRE 1056 -656 960 -656
WIRE 1120 -656 1056 -656
WIRE 1344 -656 1280 -656
WIRE 1440 -656 1344 -656
WIRE 1552 -656 1440 -656
WIRE 1760 -656 1760 -720
WIRE 1760 -656 1552 -656
WIRE 1936 -656 1936 -720
WIRE 1968 -656 1936 -656
WIRE 2144 -656 2048 -656
WIRE 2256 -656 2144 -656
WIRE 2352 -656 2256 -656
WIRE 2416 -656 2352 -656
WIRE 848 -624 848 -656
WIRE 1120 -624 1120 -656
WIRE 1280 -624 1280 -656
WIRE 1552 -624 1552 -656
WIRE -16 -608 -16 -656
WIRE 48 -608 48 -656
WIRE 144 -608 144 -656
WIRE 256 -608 256 -656
WIRE 960 -608 960 -656
WIRE 1056 -608 1056 -656
WIRE 1344 -608 1344 -656
WIRE 1440 -608 1440 -656
WIRE 2144 -608 2144 -656
WIRE 2256 -608 2256 -656
WIRE 2352 -608 2352 -656
WIRE 2416 -608 2416 -656
WIRE -16 -496 -16 -528
WIRE 48 -496 48 -544
WIRE 48 -496 -16 -496
WIRE 144 -496 144 -544
WIRE 144 -496 48 -496
WIRE 256 -496 256 -528
WIRE 256 -496 144 -496
WIRE 464 -496 256 -496
WIRE 672 -496 640 -496
WIRE 848 -496 848 -544
WIRE 848 -496 752 -496
WIRE 960 -496 960 -544
WIRE 960 -496 848 -496
WIRE 1056 -496 1056 -544
WIRE 1056 -496 960 -496
WIRE 1120 -496 1120 -544
WIRE 1120 -496 1056 -496
WIRE 1280 -496 1280 -544
WIRE 1344 -496 1344 -544
WIRE 1344 -496 1280 -496
WIRE 1440 -496 1440 -544
WIRE 1440 -496 1344 -496
WIRE 1552 -496 1552 -544
WIRE 1552 -496 1440 -496
WIRE 1648 -496 1552 -496
WIRE 1760 -496 1728 -496
WIRE 2144 -496 2144 -528
WIRE 2144 -496 1936 -496
WIRE 2256 -496 2256 -544
WIRE 2256 -496 2144 -496
WIRE 2352 -496 2352 -544
WIRE 2352 -496 2256 -496
WIRE 2416 -496 2416 -528
WIRE 2416 -496 2352 -496
WIRE 48 -432 -16 -432
WIRE 144 -432 48 -432
WIRE 256 -432 144 -432
WIRE 352 -432 256 -432
WIRE 464 -432 464 -496
WIRE 464 -432 432 -432
WIRE 640 -432 640 -496
WIRE 848 -432 640 -432
WIRE 960 -432 848 -432
WIRE 1056 -432 960 -432
WIRE 1120 -432 1056 -432
WIRE 1344 -432 1280 -432
WIRE 1440 -432 1344 -432
WIRE 1552 -432 1440 -432
WIRE 1760 -432 1760 -496
WIRE 1760 -432 1552 -432
WIRE 1936 -432 1936 -496
WIRE 1968 -432 1936 -432
WIRE 2144 -432 2048 -432
WIRE 2256 -432 2144 -432
WIRE 2352 -432 2256 -432
WIRE 2416 -432 2352 -432
WIRE 848 -400 848 -432
WIRE 1120 -400 1120 -432
WIRE 1280 -400 1280 -432
WIRE 1552 -400 1552 -432
WIRE -16 -384 -16 -432
WIRE 48 -384 48 -432
WIRE 144 -384 144 -432
WIRE 256 -384 256 -432
WIRE 960 -384 960 -432
WIRE 1056 -384 1056 -432
WIRE 1344 -384 1344 -432
WIRE 1440 -384 1440 -432
WIRE 2144 -384 2144 -432
WIRE 2256 -384 2256 -432
WIRE 2352 -384 2352 -432
WIRE 2416 -384 2416 -432
WIRE -16 -272 -16 -304
WIRE 48 -272 48 -320
WIRE 48 -272 -16 -272
WIRE 144 -272 144 -320
WIRE 144 -272 48 -272
WIRE 256 -272 256 -304
WIRE 256 -272 144 -272
WIRE 464 -272 256 -272
WIRE 672 -272 640 -272
WIRE 848 -272 848 -320
WIRE 848 -272 752 -272
WIRE 960 -272 960 -320
WIRE 960 -272 848 -272
WIRE 1056 -272 1056 -320
WIRE 1056 -272 960 -272
WIRE 1120 -272 1120 -320
WIRE 1120 -272 1056 -272
WIRE 1280 -272 1280 -320
WIRE 1344 -272 1344 -320
WIRE 1344 -272 1280 -272
WIRE 1440 -272 1440 -320
WIRE 1440 -272 1344 -272
WIRE 1552 -272 1552 -320
WIRE 1552 -272 1440 -272
WIRE 1648 -272 1552 -272
WIRE 1760 -272 1728 -272
WIRE 2144 -272 2144 -304
WIRE 2144 -272 1936 -272
WIRE 2256 -272 2256 -320
WIRE 2256 -272 2144 -272
WIRE 2352 -272 2352 -320
WIRE 2352 -272 2256 -272
WIRE 2416 -272 2416 -304
WIRE 2416 -272 2352 -272
WIRE 48 -208 -16 -208
WIRE 144 -208 48 -208
WIRE 256 -208 144 -208
WIRE 352 -208 256 -208
WIRE 464 -208 464 -272
WIRE 464 -208 432 -208
WIRE 640 -208 640 -272
WIRE 848 -208 640 -208
WIRE 960 -208 848 -208
WIRE 1056 -208 960 -208
WIRE 1120 -208 1056 -208
WIRE 1344 -208 1280 -208
WIRE 1440 -208 1344 -208
WIRE 1552 -208 1440 -208
WIRE 1760 -208 1760 -272
WIRE 1760 -208 1552 -208
WIRE 1936 -208 1936 -272
WIRE 1968 -208 1936 -208
WIRE 2144 -208 2048 -208
WIRE 2256 -208 2144 -208
WIRE 2352 -208 2256 -208
WIRE 2416 -208 2352 -208
WIRE 848 -176 848 -208
WIRE 1120 -176 1120 -208
WIRE 1280 -176 1280 -208
WIRE 1552 -176 1552 -208
WIRE -16 -160 -16 -208
WIRE 48 -160 48 -208
WIRE 144 -160 144 -208
WIRE 256 -160 256 -208
WIRE 960 -160 960 -208
WIRE 1056 -160 1056 -208
WIRE 1344 -160 1344 -208
WIRE 1440 -160 1440 -208
WIRE 2144 -160 2144 -208
WIRE 2256 -160 2256 -208
WIRE 2352 -160 2352 -208
WIRE 2416 -160 2416 -208
WIRE -16 -48 -16 -80
WIRE 48 -48 48 -96
WIRE 48 -48 -16 -48
WIRE 144 -48 144 -96
WIRE 144 -48 48 -48
WIRE 256 -48 256 -80
WIRE 256 -48 144 -48
WIRE 464 -48 256 -48
WIRE 672 -48 640 -48
WIRE 848 -48 848 -96
WIRE 848 -48 752 -48
WIRE 960 -48 960 -96
WIRE 960 -48 848 -48
WIRE 1056 -48 1056 -96
WIRE 1056 -48 960 -48
WIRE 1120 -48 1120 -96
WIRE 1120 -48 1056 -48
WIRE 1280 -48 1280 -96
WIRE 1344 -48 1344 -96
WIRE 1344 -48 1280 -48
WIRE 1440 -48 1440 -96
WIRE 1440 -48 1344 -48
WIRE 1552 -48 1552 -96
WIRE 1552 -48 1440 -48
WIRE 1648 -48 1552 -48
WIRE 1760 -48 1728 -48
WIRE 2144 -48 2144 -80
WIRE 2144 -48 1936 -48
WIRE 2256 -48 2256 -96
WIRE 2256 -48 2144 -48
WIRE 2352 -48 2352 -96
WIRE 2352 -48 2256 -48
WIRE 2416 -48 2416 -80
WIRE 2416 -48 2352 -48
WIRE 48 16 -16 16
WIRE 144 16 48 16
WIRE 256 16 144 16
WIRE 352 16 256 16
WIRE 464 16 464 -48
WIRE 464 16 432 16
WIRE 640 16 640 -48
WIRE 848 16 640 16
WIRE 960 16 848 16
WIRE 1056 16 960 16
WIRE 1120 16 1056 16
WIRE 1344 16 1280 16
WIRE 1440 16 1344 16
WIRE 1552 16 1440 16
WIRE 1760 16 1760 -48
WIRE 1760 16 1552 16
WIRE 1936 16 1936 -48
WIRE 1968 16 1936 16
WIRE 2144 16 2048 16
WIRE 2256 16 2144 16
WIRE 2352 16 2256 16
WIRE 2416 16 2352 16
WIRE 848 48 848 16
WIRE 1120 48 1120 16
WIRE 1280 48 1280 16
WIRE 1552 48 1552 16
WIRE -16 64 -16 16
WIRE 48 64 48 16
WIRE 144 64 144 16
WIRE 256 64 256 16
WIRE 960 64 960 16
WIRE 1056 64 1056 16
WIRE 1344 64 1344 16
WIRE 1440 64 1440 16
WIRE 2144 64 2144 16
WIRE 2256 64 2256 16
WIRE 2352 64 2352 16
WIRE 2416 64 2416 16
WIRE -16 176 -16 144
WIRE 48 176 48 128
WIRE 48 176 -16 176
WIRE 144 176 144 128
WIRE 144 176 48 176
WIRE 256 176 256 144
WIRE 256 176 144 176
WIRE 464 176 256 176
WIRE 672 176 640 176
WIRE 848 176 848 128
WIRE 848 176 752 176
WIRE 960 176 960 128
WIRE 960 176 848 176
WIRE 1056 176 1056 128
WIRE 1056 176 960 176
WIRE 1120 176 1120 128
WIRE 1120 176 1056 176
WIRE 1280 176 1280 128
WIRE 1344 176 1344 128
WIRE 1344 176 1280 176
WIRE 1440 176 1440 128
WIRE 1440 176 1344 176
WIRE 1552 176 1552 128
WIRE 1552 176 1440 176
WIRE 1648 176 1552 176
WIRE 1760 176 1728 176
WIRE 2144 176 2144 144
WIRE 2144 176 1936 176
WIRE 2256 176 2256 128
WIRE 2256 176 2144 176
WIRE 2352 176 2352 128
WIRE 2352 176 2256 176
WIRE 2416 176 2416 144
WIRE 2416 176 2352 176
WIRE 48 240 -16 240
WIRE 144 240 48 240
WIRE 256 240 144 240
WIRE 352 240 256 240
WIRE 464 240 464 176
WIRE 464 240 432 240
WIRE 640 240 640 176
WIRE 848 240 640 240
WIRE 960 240 848 240
WIRE 1056 240 960 240
WIRE 1120 240 1056 240
WIRE 1344 240 1280 240
WIRE 1440 240 1344 240
WIRE 1552 240 1440 240
WIRE 1760 240 1760 176
WIRE 1760 240 1552 240
WIRE 1936 240 1936 176
WIRE 1968 240 1936 240
WIRE 2144 240 2048 240
WIRE 2256 240 2144 240
WIRE 2352 240 2256 240
WIRE 2416 240 2352 240
WIRE 848 272 848 240
WIRE 1120 272 1120 240
WIRE 1280 272 1280 240
WIRE 1552 272 1552 240
WIRE -16 288 -16 240
WIRE 48 288 48 240
WIRE 144 288 144 240
WIRE 256 288 256 240
WIRE 960 288 960 240
WIRE 1056 288 1056 240
WIRE 1344 288 1344 240
WIRE 1440 288 1440 240
WIRE 2144 288 2144 240
WIRE 2256 288 2256 240
WIRE 2352 288 2352 240
WIRE 2416 288 2416 240
WIRE -16 400 -16 368
WIRE 48 400 48 352
WIRE 48 400 -16 400
WIRE 144 400 144 352
WIRE 144 400 48 400
WIRE 256 400 256 368
WIRE 256 400 144 400
WIRE 464 400 256 400
WIRE 672 400 640 400
WIRE 848 400 848 352
WIRE 848 400 752 400
WIRE 960 400 960 352
WIRE 960 400 848 400
WIRE 1056 400 1056 352
WIRE 1056 400 960 400
WIRE 1120 400 1120 352
WIRE 1120 400 1056 400
WIRE 1280 400 1280 352
WIRE 1344 400 1344 352
WIRE 1344 400 1280 400
WIRE 1440 400 1440 352
WIRE 1440 400 1344 400
WIRE 1552 400 1552 352
WIRE 1552 400 1440 400
WIRE 1648 400 1552 400
WIRE 1760 400 1728 400
WIRE 2144 400 2144 368
WIRE 2144 400 1936 400
WIRE 2256 400 2256 352
WIRE 2256 400 2144 400
WIRE 2352 400 2352 352
WIRE 2352 400 2256 400
WIRE 2416 400 2416 368
WIRE 2416 400 2352 400
WIRE 48 464 -16 464
WIRE 144 464 48 464
WIRE 256 464 144 464
WIRE 352 464 256 464
WIRE 464 464 464 400
WIRE 464 464 432 464
WIRE 640 464 640 400
WIRE 848 464 640 464
WIRE 960 464 848 464
WIRE 1056 464 960 464
WIRE 1120 464 1056 464
WIRE 1344 464 1280 464
WIRE 1440 464 1344 464
WIRE 1552 464 1440 464
WIRE 1760 464 1760 400
WIRE 1760 464 1552 464
WIRE 1936 464 1936 400
WIRE 1968 464 1936 464
WIRE 2144 464 2048 464
WIRE 2256 464 2144 464
WIRE 2352 464 2256 464
WIRE 2416 464 2352 464
WIRE 848 496 848 464
WIRE 1120 496 1120 464
WIRE 1280 496 1280 464
WIRE 1552 496 1552 464
WIRE -16 512 -16 464
WIRE 48 512 48 464
WIRE 144 512 144 464
WIRE 256 512 256 464
WIRE 960 512 960 464
WIRE 1056 512 1056 464
WIRE 1344 512 1344 464
WIRE 1440 512 1440 464
WIRE 2144 512 2144 464
WIRE 2256 512 2256 464
WIRE 2352 512 2352 464
WIRE 2416 512 2416 464
WIRE -16 624 -16 592
WIRE 48 624 48 576
WIRE 48 624 -16 624
WIRE 144 624 144 576
WIRE 144 624 48 624
WIRE 256 624 256 592
WIRE 256 624 144 624
WIRE 464 624 256 624
WIRE 672 624 640 624
WIRE 848 624 848 576
WIRE 848 624 752 624
WIRE 960 624 960 576
WIRE 960 624 848 624
WIRE 1056 624 1056 576
WIRE 1056 624 960 624
WIRE 1120 624 1120 576
WIRE 1120 624 1056 624
WIRE 1280 624 1280 576
WIRE 1344 624 1344 576
WIRE 1344 624 1280 624
WIRE 1440 624 1440 576
WIRE 1440 624 1344 624
WIRE 1552 624 1552 576
WIRE 1552 624 1440 624
WIRE 1648 624 1552 624
WIRE 1760 624 1728 624
WIRE 2144 624 2144 592
WIRE 2144 624 1936 624
WIRE 2256 624 2256 576
WIRE 2256 624 2144 624
WIRE 2352 624 2352 576
WIRE 2352 624 2256 624
WIRE 2416 624 2416 592
WIRE 2416 624 2352 624
WIRE 48 688 -16 688
WIRE 144 688 48 688
WIRE 256 688 144 688
WIRE 352 688 256 688
WIRE 464 688 464 624
WIRE 464 688 432 688
WIRE 640 688 640 624
WIRE 848 688 640 688
WIRE 960 688 848 688
WIRE 1056 688 960 688
WIRE 1120 688 1056 688
WIRE 1344 688 1280 688
WIRE 1440 688 1344 688
WIRE 1552 688 1440 688
WIRE 1760 688 1760 624
WIRE 1760 688 1552 688
WIRE 1936 688 1936 624
WIRE 1968 688 1936 688
WIRE 2144 688 2048 688
WIRE 2256 688 2144 688
WIRE 2352 688 2256 688
WIRE 2416 688 2352 688
WIRE 848 720 848 688
WIRE 1120 720 1120 688
WIRE 1280 720 1280 688
WIRE 1552 720 1552 688
WIRE -16 736 -16 688
WIRE 48 736 48 688
WIRE 144 736 144 688
WIRE 256 736 256 688
WIRE 960 736 960 688
WIRE 1056 736 1056 688
WIRE 1344 736 1344 688
WIRE 1440 736 1440 688
WIRE 2144 736 2144 688
WIRE 2256 736 2256 688
WIRE 2352 736 2352 688
WIRE 2416 736 2416 688
WIRE -16 848 -16 816
WIRE 48 848 48 800
WIRE 48 848 -16 848
WIRE 144 848 144 800
WIRE 144 848 48 848
WIRE 256 848 256 816
WIRE 256 848 144 848
WIRE 464 848 256 848
WIRE 672 848 640 848
WIRE 848 848 848 800
WIRE 848 848 752 848
WIRE 960 848 960 800
WIRE 960 848 848 848
WIRE 1056 848 1056 800
WIRE 1056 848 960 848
WIRE 1120 848 1120 800
WIRE 1120 848 1056 848
WIRE 1280 848 1280 800
WIRE 1344 848 1344 800
WIRE 1344 848 1280 848
WIRE 1440 848 1440 800
WIRE 1440 848 1344 848
WIRE 1552 848 1552 800
WIRE 1552 848 1440 848
WIRE 1648 848 1552 848
WIRE 1760 848 1728 848
WIRE 2144 848 2144 816
WIRE 2144 848 1936 848
WIRE 2256 848 2256 800
WIRE 2256 848 2144 848
WIRE 2352 848 2352 800
WIRE 2352 848 2256 848
WIRE 2416 848 2416 816
WIRE 2416 848 2352 848
WIRE 48 912 -16 912
WIRE 144 912 48 912
WIRE 256 912 144 912
WIRE 352 912 256 912
WIRE 464 912 464 848
WIRE 464 912 432 912