Version 4
SHEET 1 1660 744
WIRE 464 160 320 160
WIRE 512 160 464 160
WIRE 640 160 592 160
WIRE 944 160 640 160
WIRE 1472 160 944 160
WIRE 1600 160 1552 160
WIRE 320 208 320 160
WIRE 464 208 464 160
WIRE 1600 224 1600 160
WIRE 944 256 944 224
WIRE 640 272 640 160
WIRE 320 368 320 272
WIRE 464 368 464 288
WIRE 464 368 320 368
WIRE 512 368 464 368
WIRE 640 368 640 336
WIRE 640 368 592 368
WIRE 800 368 640 368
WIRE 800 448 800 368
WIRE 944 448 944 336
WIRE 944 448 800 448
WIRE 320 528 320 368
WIRE 464 528 464 368
WIRE 640 544 640 368
WIRE 944 544 944 512
WIRE 320 624 320 592
WIRE 464 624 464 608
WIRE 464 624 320 624
WIRE 640 624 640 608
WIRE 640 624 464 624
WIRE 944 624 640 624
WIRE 1600 624 1600 304
WIRE 1600 624 944 624
FLAG 1600 624 0
SYMBOL voltage 944 528 R0
WINDOW 123 0 0 Left 2
WINDOW 39 24 124 Left 2
SYMATTR InstName V2
SYMATTR Value SINE(0 3 10k)
SYMBOL cap 304 208 R0
SYMATTR InstName C1
SYMATTR Value 1f
SYMBOL cap 928 160 R0
SYMATTR InstName C2
SYMATTR Value 0.8µ
SYMBOL voltage 464 192 R0
WINDOW 123 0 0 Left 2
WINDOW 39 24 124 Left 2
SYMATTR InstName V1
SYMATTR Value 60
SYMBOL ind 608 144 R90
WINDOW 0 5 56 VBottom 2
WINDOW 3 32 56 VTop 2
SYMATTR InstName L1
SYMATTR Value 10m
SYMBOL res 1584 208 R0
SYMATTR InstName RL
SYMATTR Value 12
SYMBOL ind 1568 144 R90
WINDOW 0 5 56 VBottom 2
WINDOW 3 32 56 VTop 2
SYMATTR InstName L2
SYMATTR Value 10m
SYMBOL cap 624 272 R0
SYMATTR InstName C3
SYMATTR Value 0.8µ
SYMBOL voltage 464 512 R0
WINDOW 123 0 0 Left 2
WINDOW 39 0 0 Left 2
SYMATTR InstName V3
SYMATTR Value 60
SYMBOL voltage 944 240 R0
WINDOW 123 0 0 Left 2
WINDOW 39 0 0 Left 2
SYMATTR InstName V4
SYMATTR Value 0
SYMBOL cap 624 544 R0
SYMATTR InstName C4
SYMATTR Value 0.8µ
SYMBOL cap 928 448 R0
SYMATTR InstName C5
SYMATTR Value 0.8µ
SYMBOL cap 304 528 R0
SYMATTR InstName C6
SYMATTR Value 1f
SYMBOL ind 608 352 R90
WINDOW 0 5 56 VBottom 2
WINDOW 3 32 56 VTop 2
SYMATTR InstName L3
SYMATTR Value 10m
TEXT 302 644 Left 2 !.tran 100ms
