Version 4
SHEET 1 1588 680
WIRE -1056 -304 -1136 -304
WIRE -736 -304 -912 -304
WIRE -432 -304 -592 -304
WIRE -144 -304 -288 -304
WIRE 112 -304 0 -304
WIRE 448 -304 448 -352
WIRE 448 -304 256 -304
WIRE 528 -304 448 -304
WIRE -1136 -112 -1136 -304
WIRE -1056 -112 -1136 -112
WIRE -736 -112 -912 -112
WIRE -432 -112 -592 -112
WIRE -144 -112 -288 -112
WIRE 112 -112 0 -112
WIRE 416 -112 256 -112
WIRE 528 -112 528 -304
WIRE 576 -112 528 -112
WIRE 704 -112 576 -112
WIRE 896 -112 784 -112
WIRE 576 -64 576 -112
WIRE 896 -32 896 -112
WIRE 1024 -32 960 -32
WIRE -1056 48 -1136 48
WIRE -736 48 -912 48
WIRE -432 48 -592 48
WIRE -144 48 -288 48
WIRE 112 48 0 48
WIRE 416 48 416 -112
WIRE 416 48 256 48
WIRE 576 48 576 0
WIRE 576 48 528 48
WIRE 688 48 576 48
WIRE 816 48 768 48
WIRE 896 48 896 -32
WIRE -1136 240 -1136 48
WIRE -1056 240 -1136 240
WIRE -736 240 -912 240
WIRE -432 240 -592 240
WIRE -240 240 -288 240
WIRE -144 240 -240 240
WIRE 112 240 0 240
WIRE 528 240 528 48
WIRE 528 240 256 240
WIRE -240 288 -240 240
WIRE -240 416 -240 352
WIRE -240 544 -240 496
FLAG 1024 -32 receiver
IOPIN 1024 -32 Out
FLAG -240 544 0
FLAG 448 -352 0
SYMBOL jacModule 192 -304 R180
SYMATTR InstName X1
SYMBOL jacModule -64 -304 R180
SYMATTR InstName X2
SYMBOL jacModule -352 -304 R180
SYMATTR InstName X3
SYMBOL jacModule -656 -304 R180
SYMATTR InstName X4
SYMBOL jacModule -976 -304 R180
SYMATTR InstName X5
SYMBOL jacModule -992 -112 R0
SYMATTR InstName X6
SYMBOL jacModule -672 -112 R0
SYMATTR InstName X7
SYMBOL jacModule -368 -112 R0
SYMATTR InstName X8
SYMBOL jacModule -80 -112 R0
SYMATTR InstName X9
SYMBOL jacModule 176 -112 R0
SYMATTR InstName X10
SYMBOL jacModule 192 48 R180
SYMATTR InstName X11
SYMBOL jacModule -64 48 R180
SYMATTR InstName X12
SYMBOL jacModule -352 48 R180
SYMATTR InstName X13
SYMBOL jacModule -656 48 R180
SYMATTR InstName X14
SYMBOL jacModule -976 48 R180
SYMATTR InstName X15
SYMBOL jacModule -992 240 R0
SYMATTR InstName X16
SYMBOL jacModule -672 240 R0
SYMATTR InstName X17
SYMBOL jacModule -368 240 R0
SYMATTR InstName X18
SYMBOL jacModule -80 240 R0
SYMATTR InstName X19
SYMBOL jacModule 176 240 R0
SYMATTR InstName X20
SYMBOL cap 560 -64 R0
SYMATTR InstName C1
SYMATTR Value 193.5p
SYMBOL ind 784 32 R90
WINDOW 0 5 56 VBottom 2
WINDOW 3 32 56 VTop 2
SYMATTR InstName L1
SYMATTR Value 25µ
SYMBOL cap 896 -16 R270
WINDOW 0 32 32 VTop 2
WINDOW 3 0 32 VBottom 2
SYMATTR InstName C2
SYMATTR Value 1µ
SYMBOL cap -256 288 R0
SYMATTR InstName C3
SYMATTR Value 1µ
SYMBOL voltage -240 400 R0
WINDOW 123 0 0 Left 2
WINDOW 39 0 0 Left 2
SYMATTR InstName V1
SYMATTR Value SINE(0 3.3 1e6)
SYMBOL res 912 32 R90
WINDOW 0 0 56 VBottom 2
WINDOW 3 32 56 VTop 2
SYMATTR InstName R1
SYMATTR Value 178m
SYMBOL res 688 -96 R270
WINDOW 0 32 56 VTop 2
WINDOW 3 0 56 VBottom 2
SYMATTR InstName R2
SYMATTR Value {Rload}
TEXT -1144 384 Left 2 !.tran 10u
TEXT -1144 424 Left 2 !.param Rload = 1
