Version 4
SHEET 1 880 680
WIRE 288 16 288 -32
WIRE 368 16 368 0
WIRE 288 80 288 16
WIRE 368 80 368 16
WIRE 128 144 16 144
WIRE 288 144 272 144
WIRE 432 144 368 144
WIRE 432 160 432 144
WIRE -256 176 -288 176
WIRE -192 176 -256 176
WIRE -64 176 -112 176
WIRE 16 176 16 144
WIRE -256 256 -256 176
WIRE -208 256 -256 256
WIRE -64 256 -128 256
WIRE 16 288 16 256
WIRE 64 288 16 288
WIRE 432 288 432 240
WIRE 432 288 64 288
WIRE 64 320 64 288
FLAG 288 -32 0
FLAG 368 0 RECEIVER
IOPIN 368 0 Out
FLAG -288 176 0
FLAG 64 320 0
SYMBOL jacModule 192 144 R0
SYMATTR InstName X1
SYMBOL res 416 144 R0
SYMATTR InstName R1
SYMATTR Value 1m
SYMBOL ind2 272 160 R270
WINDOW 0 32 56 VTop 2
WINDOW 3 5 56 VBottom 2
SYMATTR InstName L1
SYMATTR Value 144n
SYMATTR Type ind
SYMBOL ind2 32 272 R180
WINDOW 0 36 80 Left 2
WINDOW 3 36 40 Left 2
SYMATTR InstName L2
SYMATTR Value 144n
SYMATTR Type ind
SYMBOL ind2 -80 160 R0
SYMATTR InstName L3
SYMATTR Value 130µ
SYMATTR Type ind
SYMBOL ind2 384 64 R90
WINDOW 0 5 56 VBottom 2
WINDOW 3 32 56 VTop 2
SYMATTR InstName L4
SYMATTR Value 130µ
SYMATTR Type ind
SYMBOL voltage -96 176 R90
WINDOW 0 -32 56 VBottom 2
WINDOW 3 32 56 VTop 2
WINDOW 123 0 0 Left 2
WINDOW 39 0 0 Left 2
SYMATTR InstName V1
SYMATTR Value SINE(0 3.3 1e6)
SYMBOL res 384 0 R90
WINDOW 0 0 56 VBottom 2
WINDOW 3 32 56 VTop 2
SYMATTR InstName R2
SYMATTR Value 1e6
SYMBOL res -112 240 R90
WINDOW 0 0 56 VBottom 2
WINDOW 3 32 56 VTop 2
SYMATTR InstName R3
SYMATTR Value 1p
TEXT 16 40 Left 2 !.tran 10u
TEXT 16 56 Left 2 !K1 L1 L4 0.8
TEXT 16 72 Left 2 !K2 L2 L3 0.8
