Version 4
SHEET 1 1356 680
WIRE -368 144 -480 144
WIRE -240 144 -368 144
WIRE -48 144 -240 144
WIRE 304 144 96 144
WIRE 432 144 304 144
WIRE 464 144 432 144
WIRE -368 208 -368 144
WIRE 160 320 160 272
WIRE 160 448 160 400
WIRE -240 496 -240 144
WIRE 144 496 -240 496
WIRE 304 496 304 144
WIRE 304 496 240 496
WIRE -480 624 -480 144
WIRE -64 624 -480 624
WIRE 432 624 432 144
WIRE 432 624 16 624
FLAG 160 272 0
FLAG -368 208 0
FLAG 464 144 OUT
IOPIN 464 144 Out
SYMBOL nmos 240 448 R90
SYMATTR InstName mos1
SYMBOL voltage 160 416 R180
WINDOW 0 24 96 Left 2
WINDOW 3 24 16 Left 2
WINDOW 123 0 0 Left 2
WINDOW 39 0 0 Left 2
SYMATTR InstName V1
SYMATTR Value PULSE(0 3.3 0 0 0 0.5e-4 1e-4)
SYMBOL jacModule 16 144 R0
SYMATTR InstName X1
SYMBOL res -80 640 R270
WINDOW 0 32 56 VTop 2
WINDOW 3 0 56 VBottom 2
SYMATTR InstName R1
SYMATTR Value 1000
TEXT -432 568 Left 2 !.tran 1m
TEXT -432 536 Left 2 !.model mos1 VDMOS(Ron=20m)
