Version 4
SHEET 1 1588 684
WIRE -672 -304 -736 -304
WIRE -496 -304 -528 -304
WIRE -320 -304 -352 -304
WIRE -144 -304 -176 -304
WIRE 32 -304 0 -304
WIRE 240 -304 176 -304
WIRE 384 -304 240 -304
WIRE 384 -288 384 -304
WIRE 384 -288 336 -288
WIRE 432 -288 384 -288
WIRE 240 -256 240 -304
WIRE 432 -224 432 -288
WIRE 336 -192 336 -208
WIRE -736 -176 -736 -304
WIRE -672 -176 -736 -176
WIRE -496 -176 -528 -176
WIRE -320 -176 -352 -176
WIRE -144 -176 -176 -176
WIRE 32 -176 0 -176
WIRE 208 -176 176 -176
WIRE -672 -96 -736 -96
WIRE -496 -96 -528 -96
WIRE -320 -96 -352 -96
WIRE -144 -96 -176 -96
WIRE 32 -96 0 -96
WIRE 208 -96 208 -176
WIRE 208 -96 176 -96
WIRE 336 -80 336 -112
WIRE 336 16 336 0
WIRE 416 16 336 16
WIRE 432 16 432 -160
WIRE 432 16 416 16
WIRE -736 32 -736 -96
WIRE -688 32 -736 32
WIRE -672 32 -688 32
WIRE -512 32 -528 32
WIRE -496 32 -512 32
WIRE -320 32 -352 32
WIRE -144 32 -176 32
WIRE 32 32 0 32
WIRE 336 32 336 16
WIRE 336 32 176 32
WIRE 416 80 416 16
WIRE -688 112 -688 32
WIRE -656 112 -688 112
WIRE -512 112 -512 32
WIRE -512 112 -560 112
WIRE -576 176 -576 160
WIRE -480 176 -576 176
WIRE -352 176 -400 176
FLAG -352 176 0
FLAG 416 80 MEASURE
IOPIN 416 80 Out
FLAG 240 -256 0
SYMBOL jacModule 112 -304 R180
SYMATTR InstName X1
SYMBOL jacModule -64 -304 R180
SYMATTR InstName X2
SYMBOL jacModule -240 -304 R180
SYMATTR InstName X3
SYMBOL jacModule -416 -304 R180
SYMATTR InstName X4
SYMBOL jacModule -592 -304 R180
SYMATTR InstName X5
SYMBOL jacModule -608 -176 R0
SYMATTR InstName X6
SYMBOL jacModule -432 -176 R0
SYMATTR InstName X7
SYMBOL jacModule -256 -176 R0
SYMATTR InstName X8
SYMBOL jacModule -80 -176 R0
SYMATTR InstName X9
SYMBOL jacModule 96 -176 R0
SYMATTR InstName X10
SYMBOL jacModule 112 -96 R180
SYMATTR InstName X11
SYMBOL jacModule -64 -96 R180
SYMATTR InstName X12
SYMBOL jacModule -240 -96 R180
SYMATTR InstName X13
SYMBOL jacModule -416 -96 R180
SYMATTR InstName X14
SYMBOL jacModule -592 -96 R180
SYMATTR InstName X15
SYMBOL jacModule -608 32 R0
SYMATTR InstName X16
SYMBOL jacModule -432 32 R0
SYMATTR InstName X17
SYMBOL jacModule -256 32 R0
SYMATTR InstName X18
SYMBOL jacModule -80 32 R0
SYMATTR InstName X19
SYMBOL jacModule 96 32 R0
SYMATTR InstName X20
SYMBOL cap 448 -160 R180
WINDOW 0 24 56 Left 2
WINDOW 3 24 8 Left 2
SYMATTR InstName C1
SYMATTR Value 193.5p
SYMBOL ind 352 -192 R180
WINDOW 0 36 80 Left 2
WINDOW 3 36 40 Left 2
SYMATTR InstName L1
SYMATTR Value 25µ
SYMBOL res 352 -96 R180
WINDOW 0 36 76 Left 2
WINDOW 3 36 40 Left 2
SYMATTR InstName R1
SYMATTR Value 178m
SYMBOL nmos -656 160 R270
SYMATTR InstName mos1
SYMBOL voltage -496 176 R270
WINDOW 0 24 96 Left 2
WINDOW 3 56 0 VRight 2
WINDOW 123 0 0 Left 2
WINDOW 39 0 0 Left 2
SYMATTR InstName V1
SYMATTR Value PULSE(0 3.3 0 0 0 0.5e-4 1e-4)
SYMBOL res 320 -96 R0
SYMATTR InstName R2
SYMATTR Value {Rload}
TEXT -296 144 Left 2 !.tran 1m
TEXT -296 120 Left 2 !.param Rload = 100
TEXT -296 96 Left 2 !.param Cload = 100u
TEXT -296 168 Left 2 !.model mos1 VDMOS(Ron=0.1m)
