Version 4
SHEET 1 1356 680
WIRE -272 144 -320 144
WIRE -256 144 -272 144
WIRE -80 144 -112 144
WIRE -48 144 -80 144
WIRE 208 144 96 144
WIRE 336 144 208 144
WIRE 560 144 480 144
WIRE 592 144 560 144
WIRE -272 224 -272 144
WIRE -240 224 -272 224
WIRE -112 224 -112 144
WIRE -112 224 -160 224
WIRE 112 224 112 176
WIRE 560 240 560 144
WIRE 112 352 112 304
WIRE -80 400 -80 144
WIRE 32 400 32 384
WIRE 32 400 -80 400
WIRE 96 400 32 400
WIRE 208 400 208 144
WIRE 208 400 192 400
WIRE -320 448 -320 144
WIRE 560 448 560 320
WIRE 560 448 -320 448
FLAG 112 176 0
FLAG 592 144 MEASURE
IOPIN 592 144 Out
FLAG 32 384 0
SYMBOL nmos 192 352 R90
SYMATTR InstName M1
SYMATTR Value mos1
SYMBOL voltage 112 320 R180
WINDOW 0 24 96 Left 2
WINDOW 3 -81 -76 VRight 2
WINDOW 123 0 0 Left 2
WINDOW 39 0 0 Left 2
SYMATTR InstName V1
SYMATTR Value PULSE(0 3.3 0 0 0 0.5e-4 1e-4)
SYMBOL jacModule 16 144 R0
SYMATTR InstName X1
SYMBOL res 544 224 R0
SYMATTR InstName R1
SYMATTR Value 100
SYMBOL jacModule -192 144 R0
SYMATTR InstName X2
SYMBOL jacModule 400 144 R0
SYMATTR InstName X3
SYMBOL res -144 208 R90
WINDOW 0 0 56 VBottom 2
WINDOW 3 32 56 VTop 2
SYMATTR InstName R2
SYMATTR Value 1e-18
SYMBOL diode -256 64 R180
WINDOW 0 24 64 Left 2
WINDOW 3 24 0 Left 2
SYMATTR InstName D1
SYMATTR Value diodebp
TEXT -40 384 VLeft 2 !.tran 1m
TEXT -56 384 VLeft 2 !.model mos1 VDMOS(Ron=20m)
TEXT -312 -8 Left 2 !.model diodebp D
