Version 4
SHEET 1 1588 684
WIRE -1056 -304 -1136 -304
WIRE -736 -304 -912 -304
WIRE -432 -304 -592 -304
WIRE -144 -304 -288 -304
WIRE 112 -304 0 -304
WIRE 448 -304 448 -352
WIRE 448 -304 256 -304
WIRE 528 -304 448 -304
WIRE -1136 -112 -1136 -304
WIRE -1056 -112 -1136 -112
WIRE -736 -112 -912 -112
WIRE -432 -112 -592 -112
WIRE -144 -112 -288 -112
WIRE 112 -112 0 -112
WIRE 416 -112 256 -112
WIRE 528 -112 528 -304
WIRE 576 -112 528 -112
WIRE 720 -112 576 -112
WIRE 976 -112 800 -112
WIRE 576 -64 576 -112
WIRE -1056 48 -1136 48
WIRE -736 48 -912 48
WIRE -432 48 -592 48
WIRE -144 48 -288 48
WIRE 112 48 0 48
WIRE 416 48 416 -112
WIRE 416 48 256 48
WIRE 576 48 576 0
WIRE 576 48 528 48
WIRE 688 48 576 48
WIRE 816 48 768 48
WIRE 976 48 976 -112
WIRE 976 48 896 48
WIRE -1136 240 -1136 48
WIRE -1056 240 -1136 240
WIRE -784 240 -912 240
WIRE -736 240 -784 240
WIRE -544 240 -592 240
WIRE -432 240 -544 240
WIRE -144 240 -288 240
WIRE 112 240 0 240
WIRE 528 240 528 48
WIRE 528 240 256 240
WIRE -704 416 -704 368
WIRE -704 544 -704 496
WIRE -784 592 -784 240
WIRE -720 592 -784 592
WIRE -544 592 -544 240
WIRE -544 592 -624 592
FLAG 448 -352 0
FLAG -704 368 0
SYMBOL jacModule 192 -304 R180
SYMATTR InstName X1
SYMBOL jacModule -64 -304 R180
SYMATTR InstName X2
SYMBOL jacModule -352 -304 R180
SYMATTR InstName X3
SYMBOL jacModule -656 -304 R180
SYMATTR InstName X4
SYMBOL jacModule -976 -304 R180
SYMATTR InstName X5
SYMBOL jacModule -992 -112 R0
SYMATTR InstName X6
SYMBOL jacModule -672 -112 R0
SYMATTR InstName X7
SYMBOL jacModule -368 -112 R0
SYMATTR InstName X8
SYMBOL jacModule -80 -112 R0
SYMATTR InstName X9
SYMBOL jacModule 176 -112 R0
SYMATTR InstName X10
SYMBOL jacModule 192 48 R180
SYMATTR InstName X11
SYMBOL jacModule -64 48 R180
SYMATTR InstName X12
SYMBOL jacModule -352 48 R180
SYMATTR InstName X13
SYMBOL jacModule -656 48 R180
SYMATTR InstName X14
SYMBOL jacModule -976 48 R180
SYMATTR InstName X15
SYMBOL jacModule -992 240 R0
SYMATTR InstName X16
SYMBOL jacModule -672 240 R0
SYMATTR InstName X17
SYMBOL jacModule -368 240 R0
SYMATTR InstName X18
SYMBOL jacModule -80 240 R0
SYMATTR InstName X19
SYMBOL jacModule 176 240 R0
SYMATTR InstName X20
SYMBOL cap 560 -64 R0
SYMATTR InstName C1
SYMATTR Value 193.5p
SYMBOL ind 784 32 R90
WINDOW 0 5 56 VBottom 2
WINDOW 3 32 56 VTop 2
SYMATTR InstName L1
SYMATTR Value 25µ
SYMBOL res 912 32 R90
WINDOW 0 0 56 VBottom 2
WINDOW 3 32 56 VTop 2
SYMATTR InstName R1
SYMATTR Value 178m
SYMBOL nmos -624 544 R90
SYMATTR InstName mos1
SYMBOL voltage -704 512 R180
WINDOW 0 24 96 Left 2
WINDOW 3 24 16 Left 2
WINDOW 123 0 0 Left 2
WINDOW 39 0 0 Left 2
SYMATTR InstName V1
SYMATTR Value PULSE(0 3.3 1e-2 0 0 1)
SYMBOL res 704 -96 R270
WINDOW 0 32 56 VTop 2
WINDOW 3 0 56 VBottom 2
SYMATTR InstName R2
SYMATTR Value {Rload}
TEXT -1136 -464 Left 2 !.tran 100m
TEXT -1136 -496 Left 2 !.param Rload = 100
TEXT -1136 -528 Left 2 !.param Cload = 100u
TEXT -1136 -432 Left 2 !.model mos1 VDMOS(Rg=3 Vto=1.7 Rd=8m Rs=6m Rb=10m Kp=70 Cgdmax=2.5n Cgdmin=.4n Cgs=2n Cjo=1n Is=80p Vds=100 Ron=20m Qg=40n)
