Version 4
SHEET 1 4028 680
WIRE -6736 -8064 -6880 -8064
WIRE -6576 -8064 -6736 -8064
WIRE -6336 -8064 -6576 -8064
WIRE -6144 -8064 -6336 -8064
WIRE -5936 -8064 -6144 -8064
WIRE -5168 -8064 -5856 -8064
WIRE -4976 -8064 -5168 -8064
WIRE -4736 -8064 -4976 -8064
WIRE -4576 -8064 -4736 -8064
WIRE -4432 -8064 -4576 -8064
WIRE -4000 -8064 -4144 -8064
WIRE -3840 -8064 -4000 -8064
WIRE -3600 -8064 -3840 -8064
WIRE -3408 -8064 -3600 -8064
WIRE -3200 -8064 -3408 -8064
WIRE -2432 -8064 -3120 -8064
WIRE -2240 -8064 -2432 -8064
WIRE -2000 -8064 -2240 -8064
WIRE -1840 -8064 -2000 -8064
WIRE -1696 -8064 -1840 -8064
WIRE -1120 -8048 -1264 -8048
WIRE -960 -8048 -1120 -8048
WIRE -720 -8048 -960 -8048
WIRE -528 -8048 -720 -8048
WIRE -320 -8048 -528 -8048
WIRE 448 -8048 -240 -8048
WIRE 640 -8048 448 -8048
WIRE 880 -8048 640 -8048
WIRE 1040 -8048 880 -8048
WIRE 1184 -8048 1040 -8048
WIRE 1616 -8048 1472 -8048
WIRE 1776 -8048 1616 -8048
WIRE 2016 -8048 1776 -8048
WIRE 2208 -8048 2016 -8048
WIRE 2416 -8048 2208 -8048
WIRE 3184 -8048 2496 -8048
WIRE 3376 -8048 3184 -8048
WIRE 3616 -8048 3376 -8048
WIRE 3776 -8048 3616 -8048
WIRE 3920 -8048 3776 -8048
WIRE -6880 -7936 -6880 -8064
WIRE -6736 -7936 -6736 -8064
WIRE -6576 -7936 -6576 -8064
WIRE -6336 -7936 -6336 -8064
WIRE -6144 -7936 -6144 -8064
WIRE -5168 -7936 -5168 -8064
WIRE -4432 -7936 -4432 -8064
WIRE -4144 -7936 -4144 -8064
WIRE -4000 -7936 -4000 -8064
WIRE -3840 -7936 -3840 -8064
WIRE -3600 -7936 -3600 -8064
WIRE -3408 -7936 -3408 -8064
WIRE -2432 -7936 -2432 -8064
WIRE -1696 -7936 -1696 -8064
WIRE -4976 -7920 -4976 -8064
WIRE -4736 -7920 -4736 -8064
WIRE -4576 -7920 -4576 -8064
WIRE -2240 -7920 -2240 -8064
WIRE -2000 -7920 -2000 -8064
WIRE -1840 -7920 -1840 -8064
WIRE -1264 -7920 -1264 -8048
WIRE -1120 -7920 -1120 -8048
WIRE -960 -7920 -960 -8048
WIRE -720 -7920 -720 -8048
WIRE -528 -7920 -528 -8048
WIRE 448 -7920 448 -8048
WIRE 1184 -7920 1184 -8048
WIRE 1472 -7920 1472 -8048
WIRE 1616 -7920 1616 -8048
WIRE 1776 -7920 1776 -8048
WIRE 2016 -7920 2016 -8048
WIRE 2208 -7920 2208 -8048
WIRE 3184 -7920 3184 -8048
WIRE 3920 -7920 3920 -8048
WIRE 640 -7904 640 -8048
WIRE 880 -7904 880 -8048
WIRE 1040 -7904 1040 -8048
WIRE 3376 -7904 3376 -8048
WIRE 3616 -7904 3616 -8048
WIRE 3776 -7904 3776 -8048
WIRE -6880 -7728 -6880 -7856
WIRE -6736 -7728 -6736 -7872
WIRE -6736 -7728 -6880 -7728
WIRE -6576 -7728 -6576 -7872
WIRE -6576 -7728 -6736 -7728
WIRE -6336 -7728 -6336 -7872
WIRE -6336 -7728 -6576 -7728
WIRE -6144 -7728 -6144 -7856
WIRE -6144 -7728 -6336 -7728
WIRE -5696 -7728 -6144 -7728
WIRE -5456 -7728 -5616 -7728
WIRE -5168 -7728 -5168 -7856
WIRE -5168 -7728 -5376 -7728
WIRE -4976 -7728 -4976 -7856
WIRE -4976 -7728 -5168 -7728
WIRE -4736 -7728 -4736 -7856
WIRE -4736 -7728 -4976 -7728
WIRE -4576 -7728 -4576 -7856
WIRE -4576 -7728 -4736 -7728
WIRE -4432 -7728 -4432 -7856
WIRE -4432 -7728 -4576 -7728
WIRE -4144 -7728 -4144 -7856
WIRE -4000 -7728 -4000 -7872
WIRE -4000 -7728 -4144 -7728
WIRE -3840 -7728 -3840 -7872
WIRE -3840 -7728 -4000 -7728
WIRE -3600 -7728 -3600 -7872
WIRE -3600 -7728 -3840 -7728
WIRE -3408 -7728 -3408 -7856
WIRE -3408 -7728 -3600 -7728
WIRE -2960 -7728 -3408 -7728
WIRE -2720 -7728 -2880 -7728
WIRE -2432 -7728 -2432 -7856
WIRE -2432 -7728 -2640 -7728
WIRE -2240 -7728 -2240 -7856
WIRE -2240 -7728 -2432 -7728
WIRE -2000 -7728 -2000 -7856
WIRE -2000 -7728 -2240 -7728
WIRE -1840 -7728 -1840 -7856
WIRE -1840 -7728 -2000 -7728
WIRE -1696 -7728 -1696 -7856
WIRE -1696 -7728 -1840 -7728
WIRE -1264 -7712 -1264 -7840
WIRE -1120 -7712 -1120 -7856
WIRE -1120 -7712 -1264 -7712
WIRE -960 -7712 -960 -7856
WIRE -960 -7712 -1120 -7712
WIRE -720 -7712 -720 -7856
WIRE -720 -7712 -960 -7712
WIRE -528 -7712 -528 -7840
WIRE -528 -7712 -720 -7712
WIRE -80 -7712 -528 -7712
WIRE 160 -7712 0 -7712
WIRE 448 -7712 448 -7840
WIRE 448 -7712 240 -7712
WIRE 640 -7712 640 -7840
WIRE 640 -7712 448 -7712
WIRE 880 -7712 880 -7840
WIRE 880 -7712 640 -7712
WIRE 1040 -7712 1040 -7840
WIRE 1040 -7712 880 -7712
WIRE 1184 -7712 1184 -7840
WIRE 1184 -7712 1040 -7712
WIRE 1472 -7712 1472 -7840
WIRE 1616 -7712 1616 -7856
WIRE 1616 -7712 1472 -7712
WIRE 1776 -7712 1776 -7856
WIRE 1776 -7712 1616 -7712
WIRE 2016 -7712 2016 -7856
WIRE 2016 -7712 1776 -7712
WIRE 2208 -7712 2208 -7840
WIRE 2208 -7712 2016 -7712
WIRE 2656 -7712 2208 -7712
WIRE 2896 -7712 2736 -7712
WIRE 3184 -7712 3184 -7840
WIRE 3184 -7712 2976 -7712
WIRE 3376 -7712 3376 -7840
WIRE 3376 -7712 3184 -7712
WIRE 3616 -7712 3616 -7840
WIRE 3616 -7712 3376 -7712
WIRE 3776 -7712 3776 -7840
WIRE 3776 -7712 3616 -7712
WIRE 3920 -7712 3920 -7840
WIRE 3920 -7712 3776 -7712
WIRE -6736 -7648 -6880 -7648
WIRE -6576 -7648 -6736 -7648
WIRE -6336 -7648 -6576 -7648
WIRE -6144 -7648 -6336 -7648
WIRE -5936 -7648 -6144 -7648
WIRE -5696 -7648 -5696 -7728
WIRE -5696 -7648 -5856 -7648
WIRE -5616 -7648 -5616 -7728
WIRE -5168 -7648 -5616 -7648
WIRE -4976 -7648 -5168 -7648
WIRE -4736 -7648 -4976 -7648
WIRE -4576 -7648 -4736 -7648
WIRE -4432 -7648 -4576 -7648
WIRE -4000 -7648 -4144 -7648
WIRE -3840 -7648 -4000 -7648
WIRE -3600 -7648 -3840 -7648
WIRE -3408 -7648 -3600 -7648
WIRE -3200 -7648 -3408 -7648
WIRE -2960 -7648 -2960 -7728
WIRE -2960 -7648 -3120 -7648
WIRE -2880 -7648 -2880 -7728
WIRE -2432 -7648 -2880 -7648
WIRE -2240 -7648 -2432 -7648
WIRE -2000 -7648 -2240 -7648
WIRE -1840 -7648 -2000 -7648
WIRE -1696 -7648 -1840 -7648
WIRE -1120 -7632 -1264 -7632
WIRE -960 -7632 -1120 -7632
WIRE -720 -7632 -960 -7632
WIRE -528 -7632 -720 -7632
WIRE -320 -7632 -528 -7632
WIRE -80 -7632 -80 -7712
WIRE -80 -7632 -240 -7632
WIRE 0 -7632 0 -7712
WIRE 448 -7632 0 -7632
WIRE 640 -7632 448 -7632
WIRE 880 -7632 640 -7632
WIRE 1040 -7632 880 -7632
WIRE 1184 -7632 1040 -7632
WIRE 1616 -7632 1472 -7632
WIRE 1776 -7632 1616 -7632
WIRE 2016 -7632 1776 -7632
WIRE 2208 -7632 2016 -7632
WIRE 2416 -7632 2208 -7632
WIRE 2656 -7632 2656 -7712
WIRE 2656 -7632 2496 -7632
WIRE 2736 -7632 2736 -7712
WIRE 3184 -7632 2736 -7632
WIRE 3376 -7632 3184 -7632
WIRE 3616 -7632 3376 -7632
WIRE 3776 -7632 3616 -7632
WIRE 3920 -7632 3776 -7632
WIRE -6880 -7520 -6880 -7648
WIRE -6736 -7520 -6736 -7648
WIRE -6576 -7520 -6576 -7648
WIRE -6336 -7520 -6336 -7648
WIRE -6144 -7520 -6144 -7648
WIRE -5168 -7520 -5168 -7648
WIRE -4432 -7520 -4432 -7648
WIRE -4144 -7520 -4144 -7648
WIRE -4000 -7520 -4000 -7648
WIRE -3840 -7520 -3840 -7648
WIRE -3600 -7520 -3600 -7648
WIRE -3408 -7520 -3408 -7648
WIRE -2432 -7520 -2432 -7648
WIRE -1696 -7520 -1696 -7648
WIRE -4976 -7504 -4976 -7648
WIRE -4736 -7504 -4736 -7648
WIRE -4576 -7504 -4576 -7648
WIRE -2240 -7504 -2240 -7648
WIRE -2000 -7504 -2000 -7648
WIRE -1840 -7504 -1840 -7648
WIRE -1264 -7504 -1264 -7632
WIRE -1120 -7504 -1120 -7632
WIRE -960 -7504 -960 -7632
WIRE -720 -7504 -720 -7632
WIRE -528 -7504 -528 -7632
WIRE 448 -7504 448 -7632
WIRE 1184 -7504 1184 -7632
WIRE 1472 -7504 1472 -7632
WIRE 1616 -7504 1616 -7632
WIRE 1776 -7504 1776 -7632
WIRE 2016 -7504 2016 -7632
WIRE 2208 -7504 2208 -7632
WIRE 3184 -7504 3184 -7632
WIRE 3920 -7504 3920 -7632
WIRE 640 -7488 640 -7632
WIRE 880 -7488 880 -7632
WIRE 1040 -7488 1040 -7632
WIRE 3376 -7488 3376 -7632
WIRE 3616 -7488 3616 -7632
WIRE 3776 -7488 3776 -7632
WIRE -6880 -7312 -6880 -7440
WIRE -6736 -7312 -6736 -7456
WIRE -6736 -7312 -6880 -7312
WIRE -6576 -7312 -6576 -7456
WIRE -6576 -7312 -6736 -7312
WIRE -6336 -7312 -6336 -7456
WIRE -6336 -7312 -6576 -7312
WIRE -6144 -7312 -6144 -7440
WIRE -6144 -7312 -6336 -7312
WIRE -5696 -7312 -6144 -7312
WIRE -5456 -7312 -5616 -7312
WIRE -5168 -7312 -5168 -7440
WIRE -5168 -7312 -5376 -7312
WIRE -4976 -7312 -4976 -7440
WIRE -4976 -7312 -5168 -7312
WIRE -4736 -7312 -4736 -7440
WIRE -4736 -7312 -4976 -7312
WIRE -4576 -7312 -4576 -7440
WIRE -4576 -7312 -4736 -7312
WIRE -4432 -7312 -4432 -7440
WIRE -4432 -7312 -4576 -7312
WIRE -4144 -7312 -4144 -7440
WIRE -4000 -7312 -4000 -7456
WIRE -4000 -7312 -4144 -7312
WIRE -3840 -7312 -3840 -7456
WIRE -3840 -7312 -4000 -7312
WIRE -3600 -7312 -3600 -7456
WIRE -3600 -7312 -3840 -7312
WIRE -3408 -7312 -3408 -7440
WIRE -3408 -7312 -3600 -7312
WIRE -2960 -7312 -3408 -7312
WIRE -2720 -7312 -2880 -7312
WIRE -2432 -7312 -2432 -7440
WIRE -2432 -7312 -2640 -7312
WIRE -2240 -7312 -2240 -7440
WIRE -2240 -7312 -2432 -7312
WIRE -2000 -7312 -2000 -7440
WIRE -2000 -7312 -2240 -7312
WIRE -1840 -7312 -1840 -7440
WIRE -1840 -7312 -2000 -7312
WIRE -1696 -7312 -1696 -7440
WIRE -1696 -7312 -1840 -7312
WIRE -1264 -7296 -1264 -7424
WIRE -1120 -7296 -1120 -7440
WIRE -1120 -7296 -1264 -7296
WIRE -960 -7296 -960 -7440
WIRE -960 -7296 -1120 -7296
WIRE -720 -7296 -720 -7440
WIRE -720 -7296 -960 -7296
WIRE -528 -7296 -528 -7424
WIRE -528 -7296 -720 -7296
WIRE -80 -7296 -528 -7296
WIRE 160 -7296 0 -7296
WIRE 448 -7296 448 -7424
WIRE 448 -7296 240 -7296
WIRE 640 -7296 640 -7424
WIRE 640 -7296 448 -7296
WIRE 880 -7296 880 -7424
WIRE 880 -7296 640 -7296
WIRE 1040 -7296 1040 -7424
WIRE 1040 -7296 880 -7296
WIRE 1184 -7296 1184 -7424
WIRE 1184 -7296 1040 -7296
WIRE 1472 -7296 1472 -7424
WIRE 1616 -7296 1616 -7440
WIRE 1616 -7296 1472 -7296
WIRE 1776 -7296 1776 -7440
WIRE 1776 -7296 1616 -7296
WIRE 2016 -7296 2016 -7440
WIRE 2016 -7296 1776 -7296
WIRE 2208 -7296 2208 -7424
WIRE 2208 -7296 2016 -7296
WIRE 2656 -7296 2208 -7296
WIRE 2896 -7296 2736 -7296
WIRE 3184 -7296 3184 -7424
WIRE 3184 -7296 2976 -7296
WIRE 3376 -7296 3376 -7424
WIRE 3376 -7296 3184 -7296
WIRE 3616 -7296 3616 -7424
WIRE 3616 -7296 3376 -7296
WIRE 3776 -7296 3776 -7424
WIRE 3776 -7296 3616 -7296
WIRE 3920 -7296 3920 -7424
WIRE 3920 -7296 3776 -7296
WIRE -6736 -7232 -6880 -7232
WIRE -6576 -7232 -6736 -7232
WIRE -6336 -7232 -6576 -7232
WIRE -6144 -7232 -6336 -7232
WIRE -5936 -7232 -6144 -7232
WIRE -5696 -7232 -5696 -7312
WIRE -5696 -7232 -5856 -7232
WIRE -5616 -7232 -5616 -7312
WIRE -5168 -7232 -5616 -7232
WIRE -4976 -7232 -5168 -7232
WIRE -4736 -7232 -4976 -7232
WIRE -4576 -7232 -4736 -7232
WIRE -4432 -7232 -4576 -7232
WIRE -4000 -7232 -4144 -7232
WIRE -3840 -7232 -4000 -7232
WIRE -3600 -7232 -3840 -7232
WIRE -3408 -7232 -3600 -7232
WIRE -3200 -7232 -3408 -7232
WIRE -2960 -7232 -2960 -7312
WIRE -2960 -7232 -3120 -7232
WIRE -2880 -7232 -2880 -7312
WIRE -2432 -7232 -2880 -7232
WIRE -2240 -7232 -2432 -7232
WIRE -2000 -7232 -2240 -7232
WIRE -1840 -7232 -2000 -7232
WIRE -1696 -7232 -1840 -7232
WIRE -1120 -7216 -1264 -7216
WIRE -960 -7216 -1120 -7216
WIRE -720 -7216 -960 -7216
WIRE -528 -7216 -720 -7216
WIRE -320 -7216 -528 -7216
WIRE -80 -7216 -80 -7296
WIRE -80 -7216 -240 -7216
WIRE 0 -7216 0 -7296
WIRE 448 -7216 0 -7216
WIRE 640 -7216 448 -7216
WIRE 880 -7216 640 -7216
WIRE 1040 -7216 880 -7216
WIRE 1184 -7216 1040 -7216
WIRE 1616 -7216 1472 -7216
WIRE 1776 -7216 1616 -7216
WIRE 2016 -7216 1776 -7216
WIRE 2208 -7216 2016 -7216
WIRE 2416 -7216 2208 -7216
WIRE 2656 -7216 2656 -7296
WIRE 2656 -7216 2496 -7216
WIRE 2736 -7216 2736 -7296
WIRE 3184 -7216 2736 -7216
WIRE 3376 -7216 3184 -7216
WIRE 3616 -7216 3376 -7216
WIRE 3776 -7216 3616 -7216
WIRE 3920 -7216 3776 -7216
WIRE -6880 -7104 -6880 -7232
WIRE -6736 -7104 -6736 -7232
WIRE -6576 -7104 -6576 -7232
WIRE -6336 -7104 -6336 -7232
WIRE -6144 -7104 -6144 -7232
WIRE -5168 -7104 -5168 -7232
WIRE -4432 -7104 -4432 -7232
WIRE -4144 -7104 -4144 -7232
WIRE -4000 -7104 -4000 -7232
WIRE -3840 -7104 -3840 -7232
WIRE -3600 -7104 -3600 -7232
WIRE -3408 -7104 -3408 -7232
WIRE -2432 -7104 -2432 -7232
WIRE -1696 -7104 -1696 -7232
WIRE -4976 -7088 -4976 -7232
WIRE -4736 -7088 -4736 -7232
WIRE -4576 -7088 -4576 -7232
WIRE -2240 -7088 -2240 -7232
WIRE -2000 -7088 -2000 -7232
WIRE -1840 -7088 -1840 -7232
WIRE -1264 -7088 -1264 -7216
WIRE -1120 -7088 -1120 -7216
WIRE -960 -7088 -960 -7216
WIRE -720 -7088 -720 -7216
WIRE -528 -7088 -528 -7216
WIRE 448 -7088 448 -7216
WIRE 1184 -7088 1184 -7216
WIRE 1472 -7088 1472 -7216
WIRE 1616 -7088 1616 -7216
WIRE 1776 -7088 1776 -7216
WIRE 2016 -7088 2016 -7216
WIRE 2208 -7088 2208 -7216
WIRE 3184 -7088 3184 -7216
WIRE 3920 -7088 3920 -7216
WIRE 640 -7072 640 -7216
WIRE 880 -7072 880 -7216
WIRE 1040 -7072 1040 -7216
WIRE 3376 -7072 3376 -7216
WIRE 3616 -7072 3616 -7216
WIRE 3776 -7072 3776 -7216
WIRE -6880 -6896 -6880 -7024
WIRE -6736 -6896 -6736 -7040
WIRE -6736 -6896 -6880 -6896
WIRE -6576 -6896 -6576 -7040
WIRE -6576 -6896 -6736 -6896
WIRE -6336 -6896 -6336 -7040
WIRE -6336 -6896 -6576 -6896
WIRE -6144 -6896 -6144 -7024
WIRE -6144 -6896 -6336 -6896
WIRE -5696 -6896 -6144 -6896
WIRE -5456 -6896 -5616 -6896
WIRE -5168 -6896 -5168 -7024
WIRE -5168 -6896 -5376 -6896
WIRE -4976 -6896 -4976 -7024
WIRE -4976 -6896 -5168 -6896
WIRE -4736 -6896 -4736 -7024
WIRE -4736 -6896 -4976 -6896
WIRE -4576 -6896 -4576 -7024
WIRE -4576 -6896 -4736 -6896
WIRE -4432 -6896 -4432 -7024
WIRE -4432 -6896 -4576 -6896
WIRE -4144 -6896 -4144 -7024
WIRE -4000 -6896 -4000 -7040
WIRE -4000 -6896 -4144 -6896
WIRE -3840 -6896 -3840 -7040
WIRE -3840 -6896 -4000 -6896
WIRE -3600 -6896 -3600 -7040
WIRE -3600 -6896 -3840 -6896
WIRE -3408 -6896 -3408 -7024
WIRE -3408 -6896 -3600 -6896
WIRE -2960 -6896 -3408 -6896
WIRE -2720 -6896 -2880 -6896
WIRE -2432 -6896 -2432 -7024
WIRE -2432 -6896 -2640 -6896
WIRE -2240 -6896 -2240 -7024
WIRE -2240 -6896 -2432 -6896
WIRE -2000 -6896 -2000 -7024
WIRE -2000 -6896 -2240 -6896
WIRE -1840 -6896 -1840 -7024
WIRE -1840 -6896 -2000 -6896
WIRE -1696 -6896 -1696 -7024
WIRE -1696 -6896 -1840 -6896
WIRE -1264 -6880 -1264 -7008
WIRE -1120 -6880 -1120 -7024
WIRE -1120 -6880 -1264 -6880
WIRE -960 -6880 -960 -7024
WIRE -960 -6880 -1120 -6880
WIRE -720 -6880 -720 -7024
WIRE -720 -6880 -960 -6880
WIRE -528 -6880 -528 -7008
WIRE -528 -6880 -720 -6880
WIRE -80 -6880 -528 -6880
WIRE 160 -6880 0 -6880
WIRE 448 -6880 448 -7008
WIRE 448 -6880 240 -6880
WIRE 640 -6880 640 -7008
WIRE 640 -6880 448 -6880
WIRE 880 -6880 880 -7008
WIRE 880 -6880 640 -6880
WIRE 1040 -6880 1040 -7008
WIRE 1040 -6880 880 -6880
WIRE 1184 -6880 1184 -7008
WIRE 1184 -6880 1040 -6880
WIRE 1472 -6880 1472 -7008
WIRE 1616 -6880 1616 -7024
WIRE 1616 -6880 1472 -6880
WIRE 1776 -6880 1776 -7024
WIRE 1776 -6880 1616 -6880
WIRE 2016 -6880 2016 -7024
WIRE 2016 -6880 1776 -6880
WIRE 2208 -6880 2208 -7008
WIRE 2208 -6880 2016 -6880
WIRE 2656 -6880 2208 -6880
WIRE 2896 -6880 2736 -6880
WIRE 3184 -6880 3184 -7008
WIRE 3184 -6880 2976 -6880
WIRE 3376 -6880 3376 -7008
WIRE 3376 -6880 3184 -6880
WIRE 3616 -6880 3616 -7008
WIRE 3616 -6880 3376 -6880
WIRE 3776 -6880 3776 -7008
WIRE 3776 -6880 3616 -6880
WIRE 3920 -6880 3920 -7008
WIRE 3920 -6880 3776 -6880
WIRE -6736 -6816 -6880 -6816
WIRE -6576 -6816 -6736 -6816
WIRE -6336 -6816 -6576 -6816
WIRE -6144 -6816 -6336 -6816
WIRE -5936 -6816 -6144 -6816
WIRE -5696 -6816 -5696 -6896
WIRE -5696 -6816 -5856 -6816
WIRE -5616 -6816 -5616 -6896
WIRE -5168 -6816 -5616 -6816
WIRE -4976 -6816 -5168 -6816
WIRE -4736 -6816 -4976 -6816
WIRE -4576 -6816 -4736 -6816
WIRE -4432 -6816 -4576 -6816
WIRE -4000 -6816 -4144 -6816
WIRE -3840 -6816 -4000 -6816
WIRE -3600 -6816 -3840 -6816
WIRE -3408 -6816 -3600 -6816
WIRE -3200 -6816 -3408 -6816
WIRE -2960 -6816 -2960 -6896
WIRE -2960 -6816 -3120 -6816
WIRE -2880 -6816 -2880 -6896
WIRE -2432 -6816 -2880 -6816
WIRE -2240 -6816 -2432 -6816
WIRE -2000 -6816 -2240 -6816
WIRE -1840 -6816 -2000 -6816
WIRE -1696 -6816 -1840 -6816
WIRE -1120 -6800 -1264 -6800
WIRE -960 -6800 -1120 -6800
WIRE -720 -6800 -960 -6800
WIRE -528 -6800 -720 -6800
WIRE -320 -6800 -528 -6800
WIRE -80 -6800 -80 -6880
WIRE -80 -6800 -240 -6800
WIRE 0 -6800 0 -6880
WIRE 448 -6800 0 -6800
WIRE 640 -6800 448 -6800
WIRE 880 -6800 640 -6800
WIRE 1040 -6800 880 -6800
WIRE 1184 -6800 1040 -6800
WIRE 1616 -6800 1472 -6800
WIRE 1776 -6800 1616 -6800
WIRE 2016 -6800 1776 -6800
WIRE 2208 -6800 2016 -6800
WIRE 2416 -6800 2208 -6800
WIRE 2656 -6800 2656 -6880
WIRE 2656 -6800 2496 -6800
WIRE 2736 -6800 2736 -6880
WIRE 3184 -6800 2736 -6800
WIRE 3376 -6800 3184 -6800
WIRE 3616 -6800 3376 -6800
WIRE 3776 -6800 3616 -6800
WIRE 3920 -6800 3776 -6800
WIRE -6880 -6688 -6880 -6816
WIRE -6736 -6688 -6736 -6816
WIRE -6576 -6688 -6576 -6816
WIRE -6336 -6688 -6336 -6816
WIRE -6144 -6688 -6144 -6816
WIRE -5168 -6688 -5168 -6816
WIRE -4432 -6688 -4432 -6816
WIRE -4144 -6688 -4144 -6816
WIRE -4000 -6688 -4000 -6816
WIRE -3840 -6688 -3840 -6816
WIRE -3600 -6688 -3600 -6816
WIRE -3408 -6688 -3408 -6816
WIRE -2432 -6688 -2432 -6816
WIRE -1696 -6688 -1696 -6816
WIRE -4976 -6672 -4976 -6816
WIRE -4736 -6672 -4736 -6816
WIRE -4576 -6672 -4576 -6816
WIRE -2240 -6672 -2240 -6816
WIRE -2000 -6672 -2000 -6816
WIRE -1840 -6672 -1840 -6816
WIRE -1264 -6672 -1264 -6800
WIRE -1120 -6672 -1120 -6800
WIRE -960 -6672 -960 -6800
WIRE -720 -6672 -720 -6800
WIRE -528 -6672 -528 -6800
WIRE 448 -6672 448 -6800
WIRE 1184 -6672 1184 -6800
WIRE 1472 -6672 1472 -6800
WIRE 1616 -6672 1616 -6800
WIRE 1776 -6672 1776 -6800
WIRE 2016 -6672 2016 -6800
WIRE 2208 -6672 2208 -6800
WIRE 3184 -6672 3184 -6800
WIRE 3920 -6672 3920 -6800
WIRE 640 -6656 640 -6800
WIRE 880 -6656 880 -6800
WIRE 1040 -6656 1040 -6800
WIRE 3376 -6656 3376 -6800
WIRE 3616 -6656 3616 -6800
WIRE 3776 -6656 3776 -6800
WIRE -6880 -6480 -6880 -6608
WIRE -6736 -6480 -6736 -6624
WIRE -6736 -6480 -6880 -6480
WIRE -6576 -6480 -6576 -6624
WIRE -6576 -6480 -6736 -6480
WIRE -6336 -6480 -6336 -6624
WIRE -6336 -6480 -6576 -6480
WIRE -6144 -6480 -6144 -6608
WIRE -6144 -6480 -6336 -6480
WIRE -5696 -6480 -6144 -6480
WIRE -5456 -6480 -5616 -6480
WIRE -5168 -6480 -5168 -6608
WIRE -5168 -6480 -5376 -6480
WIRE -4976 -6480 -4976 -6608
WIRE -4976 -6480 -5168 -6480
WIRE -4736 -6480 -4736 -6608
WIRE -4736 -6480 -4976 -6480
WIRE -4576 -6480 -4576 -6608
WIRE -4576 -6480 -4736 -6480
WIRE -4432 -6480 -4432 -6608
WIRE -4432 -6480 -4576 -6480
WIRE -4144 -6480 -4144 -6608
WIRE -4000 -6480 -4000 -6624
WIRE -4000 -6480 -4144 -6480
WIRE -3840 -6480 -3840 -6624
WIRE -3840 -6480 -4000 -6480
WIRE -3600 -6480 -3600 -6624
WIRE -3600 -6480 -3840 -6480
WIRE -3408 -6480 -3408 -6608
WIRE -3408 -6480 -3600 -6480
WIRE -2960 -6480 -3408 -6480
WIRE -2720 -6480 -2880 -6480
WIRE -2432 -6480 -2432 -6608
WIRE -2432 -6480 -2640 -6480
WIRE -2240 -6480 -2240 -6608
WIRE -2240 -6480 -2432 -6480
WIRE -2000 -6480 -2000 -6608
WIRE -2000 -6480 -2240 -6480
WIRE -1840 -6480 -1840 -6608
WIRE -1840 -6480 -2000 -6480
WIRE -1696 -6480 -1696 -6608
WIRE -1696 -6480 -1840 -6480
WIRE -1264 -6464 -1264 -6592
WIRE -1120 -6464 -1120 -6608
WIRE -1120 -6464 -1264 -6464
WIRE -960 -6464 -960 -6608
WIRE -960 -6464 -1120 -6464
WIRE -720 -6464 -720 -6608
WIRE -720 -6464 -960 -6464
WIRE -528 -6464 -528 -6592
WIRE -528 -6464 -720 -6464
WIRE -80 -6464 -528 -6464
WIRE 160 -6464 0 -6464
WIRE 448 -6464 448 -6592
WIRE 448 -6464 240 -6464
WIRE 640 -6464 640 -6592
WIRE 640 -6464 448 -6464
WIRE 880 -6464 880 -6592
WIRE 880 -6464 640 -6464
WIRE 1040 -6464 1040 -6592
WIRE 1040 -6464 880 -6464
WIRE 1184 -6464 1184 -6592
WIRE 1184 -6464 1040 -6464
WIRE 1472 -6464 1472 -6592
WIRE 1616 -6464 1616 -6608
WIRE 1616 -6464 1472 -6464
WIRE 1776 -6464 1776 -6608
WIRE 1776 -6464 1616 -6464
WIRE 2016 -6464 2016 -6608
WIRE 2016 -6464 1776 -6464
WIRE 2208 -6464 2208 -6592
WIRE 2208 -6464 2016 -6464
WIRE 2656 -6464 2208 -6464
WIRE 2896 -6464 2736 -6464
WIRE 3184 -6464 3184 -6592
WIRE 3184 -6464 2976 -6464
WIRE 3376 -6464 3376 -6592
WIRE 3376 -6464 3184 -6464
WIRE 3616 -6464 3616 -6592
WIRE 3616 -6464 3376 -6464
WIRE 3776 -6464 3776 -6592
WIRE 3776 -6464 3616 -6464
WIRE 3920 -6464 3920 -6592
WIRE 3920 -6464 3776 -6464
WIRE -6736 -6400 -6880 -6400
WIRE -6576 -6400 -6736 -6400
WIRE -6336 -6400 -6576 -6400
WIRE -6144 -6400 -6336 -6400
WIRE -5936 -6400 -6144 -6400
WIRE -5696 -6400 -5696 -6480
WIRE -5696 -6400 -5856 -6400
WIRE -5616 -6400 -5616 -6480
WIRE -5168 -6400 -5616 -6400
WIRE -4976 -6400 -5168 -6400
WIRE -4736 -6400 -4976 -6400
WIRE -4576 -6400 -4736 -6400
WIRE -4432 -6400 -4576 -6400
WIRE -4000 -6400 -4144 -6400
WIRE -3840 -6400 -4000 -6400
WIRE -3600 -6400 -3840 -6400
WIRE -3408 -6400 -3600 -6400
WIRE -3200 -6400 -3408 -6400
WIRE -2960 -6400 -2960 -6480
WIRE -2960 -6400 -3120 -6400
WIRE -2880 -6400 -2880 -6480
WIRE -2432 -6400 -2880 -6400
WIRE -2240 -6400 -2432 -6400
WIRE -2000 -6400 -2240 -6400
WIRE -1840 -6400 -2000 -6400
WIRE -1696 -6400 -1840 -6400
WIRE -1120 -6384 -1264 -6384
WIRE -960 -6384 -1120 -6384
WIRE -720 -6384 -960 -6384
WIRE -528 -6384 -720 -6384
WIRE -320 -6384 -528 -6384
WIRE -80 -6384 -80 -6464
WIRE -80 -6384 -240 -6384
WIRE 0 -6384 0 -6464
WIRE 448 -6384 0 -6384
WIRE 640 -6384 448 -6384
WIRE 880 -6384 640 -6384
WIRE 1040 -6384 880 -6384
WIRE 1184 -6384 1040 -6384
WIRE 1616 -6384 1472 -6384
WIRE 1776 -6384 1616 -6384
WIRE 2016 -6384 1776 -6384
WIRE 2208 -6384 2016 -6384
WIRE 2416 -6384 2208 -6384
WIRE 2656 -6384 2656 -6464
WIRE 2656 -6384 2496 -6384
WIRE 2736 -6384 2736 -6464
WIRE 3184 -6384 2736 -6384
WIRE 3376 -6384 3184 -6384
WIRE 3616 -6384 3376 -6384
WIRE 3776 -6384 3616 -6384
WIRE 3920 -6384 3776 -6384
WIRE -6880 -6272 -6880 -6400
WIRE -6736 -6272 -6736 -6400
WIRE -6576 -6272 -6576 -6400
WIRE -6336 -6272 -6336 -6400
WIRE -6144 -6272 -6144 -6400
WIRE -5168 -6272 -5168 -6400
WIRE -4432 -6272 -4432 -6400
WIRE -4144 -6272 -4144 -6400
WIRE -4000 -6272 -4000 -6400
WIRE -3840 -6272 -3840 -6400
WIRE -3600 -6272 -3600 -6400
WIRE -3408 -6272 -3408 -6400
WIRE -2432 -6272 -2432 -6400
WIRE -1696 -6272 -1696 -6400
WIRE -4976 -6256 -4976 -6400
WIRE -4736 -6256 -4736 -6400
WIRE -4576 -6256 -4576 -6400
WIRE -2240 -6256 -2240 -6400
WIRE -2000 -6256 -2000 -6400
WIRE -1840 -6256 -1840 -6400
WIRE -1264 -6256 -1264 -6384
WIRE -1120 -6256 -1120 -6384
WIRE -960 -6256 -960 -6384
WIRE -720 -6256 -720 -6384
WIRE -528 -6256 -528 -6384
WIRE 448 -6256 448 -6384
WIRE 1184 -6256 1184 -6384
WIRE 1472 -6256 1472 -6384
WIRE 1616 -6256 1616 -6384
WIRE 1776 -6256 1776 -6384
WIRE 2016 -6256 2016 -6384
WIRE 2208 -6256 2208 -6384
WIRE 3184 -6256 3184 -6384
WIRE 3920 -6256 3920 -6384
WIRE 640 -6240 640 -6384
WIRE 880 -6240 880 -6384
WIRE 1040 -6240 1040 -6384
WIRE 3376 -6240 3376 -6384
WIRE 3616 -6240 3616 -6384
WIRE 3776 -6240 3776 -6384
WIRE -6880 -6064 -6880 -6192
WIRE -6736 -6064 -6736 -6208
WIRE -6736 -6064 -6880 -6064
WIRE -6576 -6064 -6576 -6208
WIRE -6576 -6064 -6736 -6064
WIRE -6336 -6064 -6336 -6208
WIRE -6336 -6064 -6576 -6064
WIRE -6144 -6064 -6144 -6192
WIRE -6144 -6064 -6336 -6064
WIRE -5696 -6064 -6144 -6064
WIRE -5456 -6064 -5616 -6064
WIRE -5168 -6064 -5168 -6192
WIRE -5168 -6064 -5376 -6064
WIRE -4976 -6064 -4976 -6192
WIRE -4976 -6064 -5168 -6064
WIRE -4736 -6064 -4736 -6192
WIRE -4736 -6064 -4976 -6064
WIRE -4576 -6064 -4576 -6192
WIRE -4576 -6064 -4736 -6064
WIRE -4432 -6064 -4432 -6192
WIRE -4432 -6064 -4576 -6064
WIRE -4144 -6064 -4144 -6192
WIRE -4000 -6064 -4000 -6208
WIRE -4000 -6064 -4144 -6064
WIRE -3840 -6064 -3840 -6208
WIRE -3840 -6064 -4000 -6064
WIRE -3600 -6064 -3600 -6208
WIRE -3600 -6064 -3840 -6064
WIRE -3408 -6064 -3408 -6192
WIRE -3408 -6064 -3600 -6064
WIRE -2960 -6064 -3408 -6064
WIRE -2720 -6064 -2880 -6064
WIRE -2432 -6064 -2432 -6192
WIRE -2432 -6064 -2640 -6064
WIRE -2240 -6064 -2240 -6192
WIRE -2240 -6064 -2432 -6064
WIRE -2000 -6064 -2000 -6192
WIRE -2000 -6064 -2240 -6064
WIRE -1840 -6064 -1840 -6192
WIRE -1840 -6064 -2000 -6064
WIRE -1696 -6064 -1696 -6192
WIRE -1696 -6064 -1840 -6064
WIRE -1264 -6048 -1264 -6176
WIRE -1120 -6048 -1120 -6192
WIRE -1120 -6048 -1264 -6048
WIRE -960 -6048 -960 -6192
WIRE -960 -6048 -1120 -6048
WIRE -720 -6048 -720 -6192
WIRE -720 -6048 -960 -6048
WIRE -528 -6048 -528 -6176
WIRE -528 -6048 -720 -6048
WIRE -80 -6048 -528 -6048
WIRE 160 -6048 0 -6048
WIRE 448 -6048 448 -6176
WIRE 448 -6048 240 -6048
WIRE 640 -6048 640 -6176
WIRE 640 -6048 448 -6048
WIRE 880 -6048 880 -6176
WIRE 880 -6048 640 -6048
WIRE 1040 -6048 1040 -6176
WIRE 1040 -6048 880 -6048
WIRE 1184 -6048 1184 -6176
WIRE 1184 -6048 1040 -6048
WIRE 1472 -6048 1472 -6176
WIRE 1616 -6048 1616 -6192
WIRE 1616 -6048 1472 -6048
WIRE 1776 -6048 1776 -6192
WIRE 1776 -6048 1616 -6048
WIRE 2016 -6048 2016 -6192
WIRE 2016 -6048 1776 -6048
WIRE 2208 -6048 2208 -6176
WIRE 2208 -6048 2016 -6048
WIRE 2656 -6048 2208 -6048
WIRE 2896 -6048 2736 -6048
WIRE 3184 -6048 3184 -6176
WIRE 3184 -6048 2976 -6048
WIRE 3376 -6048 3376 -6176
WIRE 3376 -6048 3184 -6048
WIRE 3616 -6048 3616 -6176
WIRE 3616 -6048 3376 -6048
WIRE 3776 -6048 3776 -6176
WIRE 3776 -6048 3616 -6048
WIRE 3920 -6048 3920 -6176
WIRE 3920 -6048 3776 -6048
WIRE -6736 -5984 -6880 -5984
WIRE -6576 -5984 -6736 -5984
WIRE -6336 -5984 -6576 -5984
WIRE -6144 -5984 -6336 -5984
WIRE -5936 -5984 -6144 -5984
WIRE -5696 -5984 -5696 -6064
WIRE -5696 -5984 -5856 -5984
WIRE -5616 -5984 -5616 -6064
WIRE -5168 -5984 -5616 -5984
WIRE -4976 -5984 -5168 -5984
WIRE -4736 -5984 -4976 -5984
WIRE -4576 -5984 -4736 -5984
WIRE -4432 -5984 -4576 -5984
WIRE -4000 -5984 -4144 -5984
WIRE -3840 -5984 -4000 -5984
WIRE -3600 -5984 -3840 -5984
WIRE -3408 -5984 -3600 -5984
WIRE -3200 -5984 -3408 -5984
WIRE -2960 -5984 -2960 -6064
WIRE -2960 -5984 -3120 -5984
WIRE -2880 -5984 -2880 -6064
WIRE -2432 -5984 -2880 -5984
WIRE -2240 -5984 -2432 -5984
WIRE -2000 -5984 -2240 -5984
WIRE -1840 -5984 -2000 -5984
WIRE -1696 -5984 -1840 -5984
WIRE -1120 -5968 -1264 -5968
WIRE -960 -5968 -1120 -5968
WIRE -720 -5968 -960 -5968
WIRE -528 -5968 -720 -5968
WIRE -320 -5968 -528 -5968
WIRE -80 -5968 -80 -6048
WIRE -80 -5968 -240 -5968
WIRE 0 -5968 0 -6048
WIRE 448 -5968 0 -5968
WIRE 640 -5968 448 -5968
WIRE 880 -5968 640 -5968
WIRE 1040 -5968 880 -5968
WIRE 1184 -5968 1040 -5968
WIRE 1616 -5968 1472 -5968
WIRE 1776 -5968 1616 -5968
WIRE 2016 -5968 1776 -5968
WIRE 2208 -5968 2016 -5968
WIRE 2416 -5968 2208 -5968
WIRE 2656 -5968 2656 -6048
WIRE 2656 -5968 2496 -5968
WIRE 2736 -5968 2736 -6048
WIRE 3184 -5968 2736 -5968
WIRE 3376 -5968 3184 -5968
WIRE 3616 -5968 3376 -5968
WIRE 3776 -5968 3616 -5968
WIRE 3920 -5968 3776 -5968
WIRE -6880 -5856 -6880 -5984
WIRE -6736 -5856 -6736 -5984
WIRE -6576 -5856 -6576 -5984
WIRE -6336 -5856 -6336 -5984
WIRE -6144 -5856 -6144 -5984
WIRE -5168 -5856 -5168 -5984
WIRE -4432 -5856 -4432 -5984
WIRE -4144 -5856 -4144 -5984
WIRE -4000 -5856 -4000 -5984
WIRE -3840 -5856 -3840 -5984
WIRE -3600 -5856 -3600 -5984
WIRE -3408 -5856 -3408 -5984
WIRE -2432 -5856 -2432 -5984
WIRE -1696 -5856 -1696 -5984
WIRE -4976 -5840 -4976 -5984
WIRE -4736 -5840 -4736 -5984
WIRE -4576 -5840 -4576 -5984
WIRE -2240 -5840 -2240 -5984
WIRE -2000 -5840 -2000 -5984
WIRE -1840 -5840 -1840 -5984
WIRE -1264 -5840 -1264 -5968
WIRE -1120 -5840 -1120 -5968
WIRE -960 -5840 -960 -5968
WIRE -720 -5840 -720 -5968
WIRE -528 -5840 -528 -5968
WIRE 448 -5840 448 -5968
WIRE 1184 -5840 1184 -5968
WIRE 1472 -5840 1472 -5968
WIRE 1616 -5840 1616 -5968
WIRE 1776 -5840 1776 -5968
WIRE 2016 -5840 2016 -5968
WIRE 2208 -5840 2208 -5968
WIRE 3184 -5840 3184 -5968
WIRE 3920 -5840 3920 -5968
WIRE 640 -5824 640 -5968
WIRE 880 -5824 880 -5968
WIRE 1040 -5824 1040 -5968
WIRE 3376 -5824 3376 -5968
WIRE 3616 -5824 3616 -5968
WIRE 3776 -5824 3776 -5968
WIRE -6880 -5648 -6880 -5776
WIRE -6736 -5648 -6736 -5792
WIRE -6736 -5648 -6880 -5648
WIRE -6576 -5648 -6576 -5792
WIRE -6576 -5648 -6736 -5648
WIRE -6336 -5648 -6336 -5792
WIRE -6336 -5648 -6576 -5648
WIRE -6144 -5648 -6144 -5776
WIRE -6144 -5648 -6336 -5648
WIRE -5696 -5648 -6144 -5648
WIRE -5456 -5648 -5616 -5648
WIRE -5168 -5648 -5168 -5776
WIRE -5168 -5648 -5376 -5648
WIRE -4976 -5648 -4976 -5776
WIRE -4976 -5648 -5168 -5648
WIRE -4736 -5648 -4736 -5776
WIRE -4736 -5648 -4976 -5648
WIRE -4576 -5648 -4576 -5776
WIRE -4576 -5648 -4736 -5648
WIRE -4432 -5648 -4432 -5776
WIRE -4432 -5648 -4576 -5648
WIRE -4144 -5648 -4144 -5776
WIRE -4000 -5648 -4000 -5792
WIRE -4000 -5648 -4144 -5648
WIRE -3840 -5648 -3840 -5792
WIRE -3840 -5648 -4000 -5648
WIRE -3600 -5648 -3600 -5792
WIRE -3600 -5648 -3840 -5648
WIRE -3408 -5648 -3408 -5776
WIRE -3408 -5648 -3600 -5648
WIRE -2960 -5648 -3408 -5648
WIRE -2720 -5648 -2880 -5648
WIRE -2432 -5648 -2432 -5776
WIRE -2432 -5648 -2640 -5648
WIRE -2240 -5648 -2240 -5776
WIRE -2240 -5648 -2432 -5648
WIRE -2000 -5648 -2000 -5776
WIRE -2000 -5648 -2240 -5648
WIRE -1840 -5648 -1840 -5776
WIRE -1840 -5648 -2000 -5648
WIRE -1696 -5648 -1696 -5776
WIRE -1696 -5648 -1840 -5648
WIRE -1264 -5632 -1264 -5760
WIRE -1120 -5632 -1120 -5776
WIRE -1120 -5632 -1264 -5632
WIRE -960 -5632 -960 -5776
WIRE -960 -5632 -1120 -5632
WIRE -720 -5632 -720 -5776
WIRE -720 -5632 -960 -5632
WIRE -528 -5632 -528 -5760
WIRE -528 -5632 -720 -5632
WIRE -80 -5632 -528 -5632
WIRE 160 -5632 0 -5632
WIRE 448 -5632 448 -5760
WIRE 448 -5632 240 -5632
WIRE 640 -5632 640 -5760
WIRE 640 -5632 448 -5632
WIRE 880 -5632 880 -5760
WIRE 880 -5632 640 -5632
WIRE 1040 -5632 1040 -5760
WIRE 1040 -5632 880 -5632
WIRE 1184 -5632 1184 -5760
WIRE 1184 -5632 1040 -5632
WIRE 1472 -5632 1472 -5760
WIRE 1616 -5632 1616 -5776
WIRE 1616 -5632 1472 -5632
WIRE 1776 -5632 1776 -5776
WIRE 1776 -5632 1616 -5632
WIRE 2016 -5632 2016 -5776
WIRE 2016 -5632 1776 -5632
WIRE 2208 -5632 2208 -5760
WIRE 2208 -5632 2016 -5632
WIRE 2656 -5632 2208 -5632
WIRE 2896 -5632 2736 -5632
WIRE 3184 -5632 3184 -5760
WIRE 3184 -5632 2976 -5632
WIRE 3376 -5632 3376 -5760
WIRE 3376 -5632 3184 -5632
WIRE 3616 -5632 3616 -5760
WIRE 3616 -5632 3376 -5632
WIRE 3776 -5632 3776 -5760
WIRE 3776 -5632 3616 -5632
WIRE 3920 -5632 3920 -5760
WIRE 3920 -5632 3776 -5632
WIRE -6736 -5568 -6880 -5568
WIRE -6576 -5568 -6736 -5568
WIRE -6336 -5568 -6576 -5568
WIRE -6144 -5568 -6336 -5568
WIRE -5936 -5568 -6144 -5568
WIRE -5696 -5568 -5696 -5648
WIRE -5696 -5568 -5856 -5568
WIRE -5616 -5568 -5616 -5648
WIRE -5168 -5568 -5616 -5568
WIRE -4976 -5568 -5168 -5568
WIRE -4736 -5568 -4976 -5568
WIRE -4576 -5568 -4736 -5568
WIRE -4432 -5568 -4576 -5568
WIRE -4000 -5568 -4144 -5568
WIRE -3840 -5568 -4000 -5568
WIRE -3600 -5568 -3840 -5568
WIRE -3408 -5568 -3600 -5568
WIRE -3200 -5568 -3408 -5568
WIRE -2960 -5568 -2960 -5648
WIRE -2960 -5568 -3120 -5568
WIRE -2880 -5568 -2880 -5648
WIRE -2432 -5568 -2880 -5568
WIRE -2240 -5568 -2432 -5568
WIRE -2000 -5568 -2240 -5568
WIRE -1840 -5568 -2000 -5568
WIRE -1696 -5568 -1840 -5568
WIRE -1120 -5552 -1264 -5552
WIRE -960 -5552 -1120 -5552
WIRE -720 -5552 -960 -5552
WIRE -528 -5552 -720 -5552
WIRE -320 -5552 -528 -5552