Version 4
SHEET 1 4028 680
WIRE -1120 -8048 -1264 -8048
WIRE -960 -8048 -1120 -8048
WIRE -720 -8048 -960 -8048
WIRE -528 -8048 -720 -8048
WIRE -320 -8048 -528 -8048
WIRE 448 -8048 -240 -8048
WIRE 640 -8048 448 -8048
WIRE 880 -8048 640 -8048
WIRE 1040 -8048 880 -8048
WIRE 1184 -8048 1040 -8048
WIRE 1616 -8048 1472 -8048
WIRE 1776 -8048 1616 -8048
WIRE 2016 -8048 1776 -8048
WIRE 2208 -8048 2016 -8048
WIRE 2416 -8048 2208 -8048
WIRE 3184 -8048 2496 -8048
WIRE 3376 -8048 3184 -8048
WIRE 3616 -8048 3376 -8048
WIRE 3776 -8048 3616 -8048
WIRE 3920 -8048 3776 -8048
WIRE -1264 -7920 -1264 -8048
WIRE -1120 -7920 -1120 -8048
WIRE -960 -7920 -960 -8048
WIRE -720 -7920 -720 -8048
WIRE -528 -7920 -528 -8048
WIRE 448 -7920 448 -8048
WIRE 1184 -7920 1184 -8048
WIRE 1472 -7920 1472 -8048
WIRE 1616 -7920 1616 -8048
WIRE 1776 -7920 1776 -8048
WIRE 2016 -7920 2016 -8048
WIRE 2208 -7920 2208 -8048
WIRE 3184 -7920 3184 -8048
WIRE 3920 -7920 3920 -8048
WIRE 640 -7904 640 -8048
WIRE 880 -7904 880 -8048
WIRE 1040 -7904 1040 -8048
WIRE 3376 -7904 3376 -8048
WIRE 3616 -7904 3616 -8048
WIRE 3776 -7904 3776 -8048
WIRE -1264 -7712 -1264 -7840
WIRE -1120 -7712 -1120 -7856
WIRE -1120 -7712 -1264 -7712
WIRE -960 -7712 -960 -7856
WIRE -960 -7712 -1120 -7712
WIRE -720 -7712 -720 -7856
WIRE -720 -7712 -960 -7712
WIRE -528 -7712 -528 -7840
WIRE -528 -7712 -720 -7712
WIRE -80 -7712 -528 -7712
WIRE 160 -7712 0 -7712
WIRE 448 -7712 448 -7840
WIRE 448 -7712 240 -7712
WIRE 640 -7712 640 -7840
WIRE 640 -7712 448 -7712
WIRE 880 -7712 880 -7840
WIRE 880 -7712 640 -7712
WIRE 1040 -7712 1040 -7840
WIRE 1040 -7712 880 -7712
WIRE 1184 -7712 1184 -7840
WIRE 1184 -7712 1040 -7712
WIRE 1472 -7712 1472 -7840
WIRE 1616 -7712 1616 -7856
WIRE 1616 -7712 1472 -7712
WIRE 1776 -7712 1776 -7856
WIRE 1776 -7712 1616 -7712
WIRE 2016 -7712 2016 -7856
WIRE 2016 -7712 1776 -7712
WIRE 2208 -7712 2208 -7840
WIRE 2208 -7712 2016 -7712
WIRE 2656 -7712 2208 -7712
WIRE 2896 -7712 2736 -7712
WIRE 3184 -7712 3184 -7840
WIRE 3184 -7712 2976 -7712
WIRE 3376 -7712 3376 -7840
WIRE 3376 -7712 3184 -7712
WIRE 3616 -7712 3616 -7840
WIRE 3616 -7712 3376 -7712
WIRE 3776 -7712 3776 -7840
WIRE 3776 -7712 3616 -7712
WIRE 3920 -7712 3920 -7840
WIRE 3920 -7712 3776 -7712
WIRE -1120 -7632 -1264 -7632
WIRE -960 -7632 -1120 -7632
WIRE -720 -7632 -960 -7632
WIRE -528 -7632 -720 -7632
WIRE -320 -7632 -528 -7632
WIRE -80 -7632 -80 -7712
WIRE -80 -7632 -240 -7632
WIRE 0 -7632 0 -7712
WIRE 448 -7632 0 -7632
WIRE 640 -7632 448 -7632
WIRE 880 -7632 640 -7632
WIRE 1040 -7632 880 -7632
WIRE 1184 -7632 1040 -7632
WIRE 1616 -7632 1472 -7632
WIRE 1776 -7632 1616 -7632
WIRE 2016 -7632 1776 -7632
WIRE 2208 -7632 2016 -7632
WIRE 2416 -7632 2208 -7632
WIRE 2656 -7632 2656 -7712
WIRE 2656 -7632 2496 -7632
WIRE 2736 -7632 2736 -7712
WIRE 3184 -7632 2736 -7632
WIRE 3376 -7632 3184 -7632
WIRE 3616 -7632 3376 -7632
WIRE 3776 -7632 3616 -7632
WIRE 3920 -7632 3776 -7632
WIRE -1264 -7504 -1264 -7632
WIRE -1120 -7504 -1120 -7632
WIRE -960 -7504 -960 -7632
WIRE -720 -7504 -720 -7632
WIRE -528 -7504 -528 -7632
WIRE 448 -7504 448 -7632
WIRE 1184 -7504 1184 -7632
WIRE 1472 -7504 1472 -7632
WIRE 1616 -7504 1616 -7632
WIRE 1776 -7504 1776 -7632
WIRE 2016 -7504 2016 -7632
WIRE 2208 -7504 2208 -7632
WIRE 3184 -7504 3184 -7632
WIRE 3920 -7504 3920 -7632
WIRE 640 -7488 640 -7632
WIRE 880 -7488 880 -7632
WIRE 1040 -7488 1040 -7632
WIRE 3376 -7488 3376 -7632
WIRE 3616 -7488 3616 -7632
WIRE 3776 -7488 3776 -7632
WIRE -1264 -7296 -1264 -7424
WIRE -1120 -7296 -1120 -7440
WIRE -1120 -7296 -1264 -7296
WIRE -960 -7296 -960 -7440
WIRE -960 -7296 -1120 -7296
WIRE -720 -7296 -720 -7440
WIRE -720 -7296 -960 -7296
WIRE -528 -7296 -528 -7424
WIRE -528 -7296 -720 -7296
WIRE -80 -7296 -528 -7296
WIRE 160 -7296 0 -7296
WIRE 448 -7296 448 -7424
WIRE 448 -7296 240 -7296
WIRE 640 -7296 640 -7424
WIRE 640 -7296 448 -7296
WIRE 880 -7296 880 -7424
WIRE 880 -7296 640 -7296
WIRE 1040 -7296 1040 -7424
WIRE 1040 -7296 880 -7296
WIRE 1184 -7296 1184 -7424
WIRE 1184 -7296 1040 -7296
WIRE 1472 -7296 1472 -7424
WIRE 1616 -7296 1616 -7440
WIRE 1616 -7296 1472 -7296
WIRE 1776 -7296 1776 -7440
WIRE 1776 -7296 1616 -7296
WIRE 2016 -7296 2016 -7440
WIRE 2016 -7296 1776 -7296
WIRE 2208 -7296 2208 -7424
WIRE 2208 -7296 2016 -7296
WIRE 2656 -7296 2208 -7296
WIRE 2896 -7296 2736 -7296
WIRE 3184 -7296 3184 -7424
WIRE 3184 -7296 2976 -7296
WIRE 3376 -7296 3376 -7424
WIRE 3376 -7296 3184 -7296
WIRE 3616 -7296 3616 -7424
WIRE 3616 -7296 3376 -7296
WIRE 3776 -7296 3776 -7424
WIRE 3776 -7296 3616 -7296
WIRE 3920 -7296 3920 -7424
WIRE 3920 -7296 3776 -7296
WIRE -1120 -7216 -1264 -7216
WIRE -960 -7216 -1120 -7216
WIRE -720 -7216 -960 -7216
WIRE -528 -7216 -720 -7216
WIRE -320 -7216 -528 -7216
WIRE -80 -7216 -80 -7296
WIRE -80 -7216 -240 -7216
WIRE 0 -7216 0 -7296
WIRE 448 -7216 0 -7216
WIRE 640 -7216 448 -7216
WIRE 880 -7216 640 -7216
WIRE 1040 -7216 880 -7216
WIRE 1184 -7216 1040 -7216
WIRE 1616 -7216 1472 -7216
WIRE 1776 -7216 1616 -7216
WIRE 2016 -7216 1776 -7216
WIRE 2208 -7216 2016 -7216
WIRE 2416 -7216 2208 -7216
WIRE 2656 -7216 2656 -7296
WIRE 2656 -7216 2496 -7216
WIRE 2736 -7216 2736 -7296
WIRE 3184 -7216 2736 -7216
WIRE 3376 -7216 3184 -7216
WIRE 3616 -7216 3376 -7216
WIRE 3776 -7216 3616 -7216
WIRE 3920 -7216 3776 -7216
WIRE -1264 -7088 -1264 -7216
WIRE -1120 -7088 -1120 -7216
WIRE -960 -7088 -960 -7216
WIRE -720 -7088 -720 -7216
WIRE -528 -7088 -528 -7216
WIRE 448 -7088 448 -7216
WIRE 1184 -7088 1184 -7216
WIRE 1472 -7088 1472 -7216
WIRE 1616 -7088 1616 -7216
WIRE 1776 -7088 1776 -7216
WIRE 2016 -7088 2016 -7216
WIRE 2208 -7088 2208 -7216
WIRE 3184 -7088 3184 -7216
WIRE 3920 -7088 3920 -7216
WIRE 640 -7072 640 -7216
WIRE 880 -7072 880 -7216
WIRE 1040 -7072 1040 -7216
WIRE 3376 -7072 3376 -7216
WIRE 3616 -7072 3616 -7216
WIRE 3776 -7072 3776 -7216
WIRE -1264 -6880 -1264 -7008
WIRE -1120 -6880 -1120 -7024
WIRE -1120 -6880 -1264 -6880
WIRE -960 -6880 -960 -7024
WIRE -960 -6880 -1120 -6880
WIRE -720 -6880 -720 -7024
WIRE -720 -6880 -960 -6880
WIRE -528 -6880 -528 -7008
WIRE -528 -6880 -720 -6880
WIRE -80 -6880 -528 -6880
WIRE 160 -6880 0 -6880
WIRE 448 -6880 448 -7008
WIRE 448 -6880 240 -6880
WIRE 640 -6880 640 -7008
WIRE 640 -6880 448 -6880
WIRE 880 -6880 880 -7008
WIRE 880 -6880 640 -6880
WIRE 1040 -6880 1040 -7008
WIRE 1040 -6880 880 -6880
WIRE 1184 -6880 1184 -7008
WIRE 1184 -6880 1040 -6880
WIRE 1472 -6880 1472 -7008
WIRE 1616 -6880 1616 -7024
WIRE 1616 -6880 1472 -6880
WIRE 1776 -6880 1776 -7024
WIRE 1776 -6880 1616 -6880
WIRE 2016 -6880 2016 -7024
WIRE 2016 -6880 1776 -6880
WIRE 2208 -6880 2208 -7008
WIRE 2208 -6880 2016 -6880
WIRE 2656 -6880 2208 -6880
WIRE 2896 -6880 2736 -6880
WIRE 3184 -6880 3184 -7008
WIRE 3184 -6880 2976 -6880
WIRE 3376 -6880 3376 -7008
WIRE 3376 -6880 3184 -6880
WIRE 3616 -6880 3616 -7008
WIRE 3616 -6880 3376 -6880
WIRE 3776 -6880 3776 -7008
WIRE 3776 -6880 3616 -6880
WIRE 3920 -6880 3920 -7008
WIRE 3920 -6880 3776 -6880
WIRE -1120 -6800 -1264 -6800
WIRE -960 -6800 -1120 -6800
WIRE -720 -6800 -960 -6800
WIRE -528 -6800 -720 -6800
WIRE -320 -6800 -528 -6800
WIRE -80 -6800 -80 -6880
WIRE -80 -6800 -240 -6800
WIRE 0 -6800 0 -6880
WIRE 448 -6800 0 -6800
WIRE 640 -6800 448 -6800
WIRE 880 -6800 640 -6800
WIRE 1040 -6800 880 -6800
WIRE 1184 -6800 1040 -6800
WIRE 1616 -6800 1472 -6800
WIRE 1776 -6800 1616 -6800
WIRE 2016 -6800 1776 -6800
WIRE 2208 -6800 2016 -6800
WIRE 2416 -6800 2208 -6800
WIRE 2656 -6800 2656 -6880
WIRE 2656 -6800 2496 -6800
WIRE 2736 -6800 2736 -6880
WIRE 3184 -6800 2736 -6800
WIRE 3376 -6800 3184 -6800
WIRE 3616 -6800 3376 -6800
WIRE 3776 -6800 3616 -6800
WIRE 3920 -6800 3776 -6800
WIRE -1264 -6672 -1264 -6800
WIRE -1120 -6672 -1120 -6800
WIRE -960 -6672 -960 -6800
WIRE -720 -6672 -720 -6800
WIRE -528 -6672 -528 -6800
WIRE 448 -6672 448 -6800
WIRE 1184 -6672 1184 -6800
WIRE 1472 -6672 1472 -6800
WIRE 1616 -6672 1616 -6800
WIRE 1776 -6672 1776 -6800
WIRE 2016 -6672 2016 -6800
WIRE 2208 -6672 2208 -6800
WIRE 3184 -6672 3184 -6800
WIRE 3920 -6672 3920 -6800
WIRE 640 -6656 640 -6800
WIRE 880 -6656 880 -6800
WIRE 1040 -6656 1040 -6800
WIRE 3376 -6656 3376 -6800
WIRE 3616 -6656 3616 -6800
WIRE 3776 -6656 3776 -6800
WIRE -1264 -6464 -1264 -6592
WIRE -1120 -6464 -1120 -6608
WIRE -1120 -6464 -1264 -6464
WIRE -960 -6464 -960 -6608
WIRE -960 -6464 -1120 -6464
WIRE -720 -6464 -720 -6608
WIRE -720 -6464 -960 -6464
WIRE -528 -6464 -528 -6592
WIRE -528 -6464 -720 -6464
WIRE -80 -6464 -528 -6464
WIRE 160 -6464 0 -6464
WIRE 448 -6464 448 -6592
WIRE 448 -6464 240 -6464
WIRE 640 -6464 640 -6592
WIRE 640 -6464 448 -6464
WIRE 880 -6464 880 -6592
WIRE 880 -6464 640 -6464
WIRE 1040 -6464 1040 -6592
WIRE 1040 -6464 880 -6464
WIRE 1184 -6464 1184 -6592
WIRE 1184 -6464 1040 -6464
WIRE 1472 -6464 1472 -6592
WIRE 1616 -6464 1616 -6608
WIRE 1616 -6464 1472 -6464
WIRE 1776 -6464 1776 -6608
WIRE 1776 -6464 1616 -6464
WIRE 2016 -6464 2016 -6608
WIRE 2016 -6464 1776 -6464
WIRE 2208 -6464 2208 -6592
WIRE 2208 -6464 2016 -6464
WIRE 2656 -6464 2208 -6464
WIRE 2896 -6464 2736 -6464
WIRE 3184 -6464 3184 -6592
WIRE 3184 -6464 2976 -6464
WIRE 3376 -6464 3376 -6592
WIRE 3376 -6464 3184 -6464
WIRE 3616 -6464 3616 -6592
WIRE 3616 -6464 3376 -6464
WIRE 3776 -6464 3776 -6592
WIRE 3776 -6464 3616 -6464
WIRE 3920 -6464 3920 -6592
WIRE 3920 -6464 3776 -6464
WIRE -1120 -6384 -1264 -6384
WIRE -960 -6384 -1120 -6384
WIRE -720 -6384 -960 -6384
WIRE -528 -6384 -720 -6384
WIRE -320 -6384 -528 -6384
WIRE -80 -6384 -80 -6464
WIRE -80 -6384 -240 -6384
WIRE 0 -6384 0 -6464
WIRE 448 -6384 0 -6384
WIRE 640 -6384 448 -6384
WIRE 880 -6384 640 -6384
WIRE 1040 -6384 880 -6384
WIRE 1184 -6384 1040 -6384
WIRE 1616 -6384 1472 -6384
WIRE 1776 -6384 1616 -6384
WIRE 2016 -6384 1776 -6384
WIRE 2208 -6384 2016 -6384
WIRE 2416 -6384 2208 -6384
WIRE 2656 -6384 2656 -6464
WIRE 2656 -6384 2496 -6384
WIRE 2736 -6384 2736 -6464
WIRE 3184 -6384 2736 -6384
WIRE 3376 -6384 3184 -6384
WIRE 3616 -6384 3376 -6384
WIRE 3776 -6384 3616 -6384
WIRE 3920 -6384 3776 -6384
WIRE -1264 -6256 -1264 -6384
WIRE -1120 -6256 -1120 -6384
WIRE -960 -6256 -960 -6384
WIRE -720 -6256 -720 -6384
WIRE -528 -6256 -528 -6384
WIRE 448 -6256 448 -6384
WIRE 1184 -6256 1184 -6384
WIRE 1472 -6256 1472 -6384
WIRE 1616 -6256 1616 -6384
WIRE 1776 -6256 1776 -6384
WIRE 2016 -6256 2016 -6384
WIRE 2208 -6256 2208 -6384
WIRE 3184 -6256 3184 -6384
WIRE 3920 -6256 3920 -6384
WIRE 640 -6240 640 -6384
WIRE 880 -6240 880 -6384
WIRE 1040 -6240 1040 -6384
WIRE 3376 -6240 3376 -6384
WIRE 3616 -6240 3616 -6384
WIRE 3776 -6240 3776 -6384
WIRE -1264 -6048 -1264 -6176
WIRE -1120 -6048 -1120 -6192
WIRE -1120 -6048 -1264 -6048
WIRE -960 -6048 -960 -6192
WIRE -960 -6048 -1120 -6048
WIRE -720 -6048 -720 -6192
WIRE -720 -6048 -960 -6048
WIRE -528 -6048 -528 -6176
WIRE -528 -6048 -720 -6048
WIRE -80 -6048 -528 -6048
WIRE 160 -6048 0 -6048
WIRE 448 -6048 448 -6176
WIRE 448 -6048 240 -6048
WIRE 640 -6048 640 -6176
WIRE 640 -6048 448 -6048
WIRE 880 -6048 880 -6176
WIRE 880 -6048 640 -6048
WIRE 1040 -6048 1040 -6176
WIRE 1040 -6048 880 -6048
WIRE 1184 -6048 1184 -6176
WIRE 1184 -6048 1040 -6048
WIRE 1472 -6048 1472 -6176
WIRE 1616 -6048 1616 -6192
WIRE 1616 -6048 1472 -6048
WIRE 1776 -6048 1776 -6192
WIRE 1776 -6048 1616 -6048
WIRE 2016 -6048 2016 -6192
WIRE 2016 -6048 1776 -6048
WIRE 2208 -6048 2208 -6176
WIRE 2208 -6048 2016 -6048
WIRE 2656 -6048 2208 -6048
WIRE 2896 -6048 2736 -6048
WIRE 3184 -6048 3184 -6176
WIRE 3184 -6048 2976 -6048
WIRE 3376 -6048 3376 -6176
WIRE 3376 -6048 3184 -6048
WIRE 3616 -6048 3616 -6176
WIRE 3616 -6048 3376 -6048
WIRE 3776 -6048 3776 -6176
WIRE 3776 -6048 3616 -6048
WIRE 3920 -6048 3920 -6176
WIRE 3920 -6048 3776 -6048
WIRE -1120 -5968 -1264 -5968
WIRE -960 -5968 -1120 -5968
WIRE -720 -5968 -960 -5968
WIRE -528 -5968 -720 -5968
WIRE -320 -5968 -528 -5968
WIRE -80 -5968 -80 -6048
WIRE -80 -5968 -240 -5968
WIRE 0 -5968 0 -6048
WIRE 448 -5968 0 -5968
WIRE 640 -5968 448 -5968
WIRE 880 -5968 640 -5968
WIRE 1040 -5968 880 -5968
WIRE 1184 -5968 1040 -5968
WIRE 1616 -5968 1472 -5968
WIRE 1776 -5968 1616 -5968
WIRE 2016 -5968 1776 -5968
WIRE 2208 -5968 2016 -5968
WIRE 2416 -5968 2208 -5968
WIRE 2656 -5968 2656 -6048
WIRE 2656 -5968 2496 -5968
WIRE 2736 -5968 2736 -6048
WIRE 3184 -5968 2736 -5968
WIRE 3376 -5968 3184 -5968
WIRE 3616 -5968 3376 -5968
WIRE 3776 -5968 3616 -5968
WIRE 3920 -5968 3776 -5968
WIRE -1264 -5840 -1264 -5968
WIRE -1120 -5840 -1120 -5968
WIRE -960 -5840 -960 -5968
WIRE -720 -5840 -720 -5968
WIRE -528 -5840 -528 -5968
WIRE 448 -5840 448 -5968
WIRE 1184 -5840 1184 -5968
WIRE 1472 -5840 1472 -5968
WIRE 1616 -5840 1616 -5968
WIRE 1776 -5840 1776 -5968
WIRE 2016 -5840 2016 -5968
WIRE 2208 -5840 2208 -5968
WIRE 3184 -5840 3184 -5968
WIRE 3920 -5840 3920 -5968
WIRE 640 -5824 640 -5968
WIRE 880 -5824 880 -5968
WIRE 1040 -5824 1040 -5968
WIRE 3376 -5824 3376 -5968
WIRE 3616 -5824 3616 -5968
WIRE 3776 -5824 3776 -5968
WIRE -1264 -5632 -1264 -5760
WIRE -1120 -5632 -1120 -5776
WIRE -1120 -5632 -1264 -5632
WIRE -960 -5632 -960 -5776
WIRE -960 -5632 -1120 -5632
WIRE -720 -5632 -720 -5776
WIRE -720 -5632 -960 -5632
WIRE -528 -5632 -528 -5760
WIRE -528 -5632 -720 -5632
WIRE -80 -5632 -528 -5632
WIRE 160 -5632 0 -5632
WIRE 448 -5632 448 -5760
WIRE 448 -5632 240 -5632
WIRE 640 -5632 640 -5760
WIRE 640 -5632 448 -5632
WIRE 880 -5632 880 -5760
WIRE 880 -5632 640 -5632
WIRE 1040 -5632 1040 -5760
WIRE 1040 -5632 880 -5632
WIRE 1184 -5632 1184 -5760
WIRE 1184 -5632 1040 -5632
WIRE 1472 -5632 1472 -5760
WIRE 1616 -5632 1616 -5776
WIRE 1616 -5632 1472 -5632
WIRE 1776 -5632 1776 -5776
WIRE 1776 -5632 1616 -5632
WIRE 2016 -5632 2016 -5776
WIRE 2016 -5632 1776 -5632
WIRE 2208 -5632 2208 -5760
WIRE 2208 -5632 2016 -5632
WIRE 2656 -5632 2208 -5632
WIRE 2896 -5632 2736 -5632
WIRE 3184 -5632 3184 -5760
WIRE 3184 -5632 2976 -5632
WIRE 3376 -5632 3376 -5760
WIRE 3376 -5632 3184 -5632
WIRE 3616 -5632 3616 -5760
WIRE 3616 -5632 3376 -5632
WIRE 3776 -5632 3776 -5760
WIRE 3776 -5632 3616 -5632
WIRE 3920 -5632 3920 -5760
WIRE 3920 -5632 3776 -5632
WIRE -1120 -5552 -1264 -5552
WIRE -960 -5552 -1120 -5552
WIRE -720 -5552 -960 -5552
WIRE -528 -5552 -720 -5552
WIRE -320 -5552 -528 -5552
WIRE -80 -5552 -80 -5632
WIRE -80 -5552 -240 -5552
WIRE 0 -5552 0 -5632
WIRE 448 -5552 0 -5552
WIRE 640 -5552 448 -5552
WIRE 880 -5552 640 -5552
WIRE 1040 -5552 880 -5552
WIRE 1184 -5552 1040 -5552
WIRE 1616 -5552 1472 -5552
WIRE 1776 -5552 1616 -5552
WIRE 2016 -5552 1776 -5552
WIRE 2208 -5552 2016 -5552
WIRE 2416 -5552 2208 -5552
WIRE 2656 -5552 2656 -5632
WIRE 2656 -5552 2496 -5552
WIRE 2736 -5552 2736 -5632
WIRE 3184 -5552 2736 -5552
WIRE 3376 -5552 3184 -5552
WIRE 3616 -5552 3376 -5552
WIRE 3776 -5552 3616 -5552
WIRE 3920 -5552 3776 -5552
WIRE -1264 -5424 -1264 -5552
WIRE -1120 -5424 -1120 -5552
WIRE -960 -5424 -960 -5552
WIRE -720 -5424 -720 -5552
WIRE -528 -5424 -528 -5552
WIRE 448 -5424 448 -5552
WIRE 1184 -5424 1184 -5552
WIRE 1472 -5424 1472 -5552
WIRE 1616 -5424 1616 -5552
WIRE 1776 -5424 1776 -5552
WIRE 2016 -5424 2016 -5552
WIRE 2208 -5424 2208 -5552
WIRE 3184 -5424 3184 -5552
WIRE 3920 -5424 3920 -5552
WIRE 640 -5408 640 -5552
WIRE 880 -5408 880 -5552
WIRE 1040 -5408 1040 -5552
WIRE 3376 -5408 3376 -5552
WIRE 3616 -5408 3616 -5552
WIRE 3776 -5408 3776 -5552
WIRE -1264 -5216 -1264 -5344
WIRE -1120 -5216 -1120 -5360
WIRE -1120 -5216 -1264 -5216
WIRE -960 -5216 -960 -5360
WIRE -960 -5216 -1120 -5216
WIRE -720 -5216 -720 -5360
WIRE -720 -5216 -960 -5216
WIRE -528 -5216 -528 -5344
WIRE -528 -5216 -720 -5216
WIRE -80 -5216 -528 -5216
WIRE 160 -5216 0 -5216
WIRE 448 -5216 448 -5344
WIRE 448 -5216 240 -5216
WIRE 640 -5216 640 -5344
WIRE 640 -5216 448 -5216
WIRE 880 -5216 880 -5344
WIRE 880 -5216 640 -5216
WIRE 1040 -5216 1040 -5344
WIRE 1040 -5216 880 -5216
WIRE 1184 -5216 1184 -5344
WIRE 1184 -5216 1040 -5216
WIRE 1472 -5216 1472 -5344
WIRE 1616 -5216 1616 -5360
WIRE 1616 -5216 1472 -5216
WIRE 1776 -5216 1776 -5360
WIRE 1776 -5216 1616 -5216
WIRE 2016 -5216 2016 -5360
WIRE 2016 -5216 1776 -5216
WIRE 2208 -5216 2208 -5344
WIRE 2208 -5216 2016 -5216
WIRE 2656 -5216 2208 -5216
WIRE 2896 -5216 2736 -5216
WIRE 3184 -5216 3184 -5344
WIRE 3184 -5216 2976 -5216
WIRE 3376 -5216 3376 -5344
WIRE 3376 -5216 3184 -5216
WIRE 3616 -5216 3616 -5344
WIRE 3616 -5216 3376 -5216
WIRE 3776 -5216 3776 -5344
WIRE 3776 -5216 3616 -5216
WIRE 3920 -5216 3920 -5344
WIRE 3920 -5216 3776 -5216
WIRE -1120 -5136 -1264 -5136
WIRE -960 -5136 -1120 -5136
WIRE -720 -5136 -960 -5136
WIRE -528 -5136 -720 -5136
WIRE -320 -5136 -528 -5136
WIRE -80 -5136 -80 -5216
WIRE -80 -5136 -240 -5136
WIRE 0 -5136 0 -5216
WIRE 448 -5136 0 -5136
WIRE 640 -5136 448 -5136
WIRE 880 -5136 640 -5136
WIRE 1040 -5136 880 -5136
WIRE 1184 -5136 1040 -5136
WIRE 1616 -5136 1472 -5136
WIRE 1776 -5136 1616 -5136
WIRE 2016 -5136 1776 -5136
WIRE 2208 -5136 2016 -5136
WIRE 2416 -5136 2208 -5136
WIRE 2656 -5136 2656 -5216
WIRE 2656 -5136 2496 -5136
WIRE 2736 -5136 2736 -5216
WIRE 3184 -5136 2736 -5136
WIRE 3376 -5136 3184 -5136
WIRE 3616 -5136 3376 -5136
WIRE 3776 -5136 3616 -5136
WIRE 3920 -5136 3776 -5136
WIRE -1264 -5008 -1264 -5136
WIRE -1120 -5008 -1120 -5136
WIRE -960 -5008 -960 -5136
WIRE -720 -5008 -720 -5136
WIRE -528 -5008 -528 -5136
WIRE 448 -5008 448 -5136
WIRE 1184 -5008 1184 -5136
WIRE 1472 -5008 1472 -5136
WIRE 1616 -5008 1616 -5136
WIRE 1776 -5008 1776 -5136
WIRE 2016 -5008 2016 -5136
WIRE 2208 -5008 2208 -5136
WIRE 3184 -5008 3184 -5136
WIRE 3920 -5008 3920 -5136
WIRE 640 -4992 640 -5136
WIRE 880 -4992 880 -5136
WIRE 1040 -4992 1040 -5136
WIRE 3376 -4992 3376 -5136
WIRE 3616 -4992 3616 -5136
WIRE 3776 -4992 3776 -5136
WIRE -1264 -4800 -1264 -4928
WIRE -1120 -4800 -1120 -4944
WIRE -1120 -4800 -1264 -4800
WIRE -960 -4800 -960 -4944
WIRE -960 -4800 -1120 -4800
WIRE -720 -4800 -720 -4944
WIRE -720 -4800 -960 -4800
WIRE -528 -4800 -528 -4928
WIRE -528 -4800 -720 -4800
WIRE -80 -4800 -528 -4800
WIRE 160 -4800 0 -4800
WIRE 448 -4800 448 -4928
WIRE 448 -4800 240 -4800
WIRE 640 -4800 640 -4928
WIRE 640 -4800 448 -4800
WIRE 880 -4800 880 -4928
WIRE 880 -4800 640 -4800
WIRE 1040 -4800 1040 -4928
WIRE 1040 -4800 880 -4800
WIRE 1184 -4800 1184 -4928
WIRE 1184 -4800 1040 -4800
WIRE 1472 -4800 1472 -4928
WIRE 1616 -4800 1616 -4944
WIRE 1616 -4800 1472 -4800
WIRE 1776 -4800 1776 -4944
WIRE 1776 -4800 1616 -4800
WIRE 2016 -4800 2016 -4944
WIRE 2016 -4800 1776 -4800
WIRE 2208 -4800 2208 -4928
WIRE 2208 -4800 2016 -4800
WIRE 2656 -4800 2208 -4800
WIRE 2896 -4800 2736 -4800
WIRE 3184 -4800 3184 -4928
WIRE 3184 -4800 2976 -4800
WIRE 3376 -4800 3376 -4928
WIRE 3376 -4800 3184 -4800
WIRE 3616 -4800 3616 -4928
WIRE 3616 -4800 3376 -4800
WIRE 3776 -4800 3776 -4928
WIRE 3776 -4800 3616 -4800
WIRE 3920 -4800 3920 -4928
WIRE 3920 -4800 3776 -4800
WIRE -1120 -4720 -1264 -4720
WIRE -960 -4720 -1120 -4720
WIRE -720 -4720 -960 -4720
WIRE -528 -4720 -720 -4720
WIRE -320 -4720 -528 -4720
WIRE -80 -4720 -80 -4800
WIRE -80 -4720 -240 -4720
WIRE 0 -4720 0 -4800
WIRE 448 -4720 0 -4720
WIRE 640 -4720 448 -4720
WIRE 880 -4720 640 -4720
WIRE 1040 -4720 880 -4720
WIRE 1184 -4720 1040 -4720
WIRE 1616 -4720 1472 -4720
WIRE 1776 -4720 1616 -4720
WIRE 2016 -4720 1776 -4720
WIRE 2208 -4720 2016 -4720
WIRE 2416 -4720 2208 -4720
WIRE 2656 -4720 2656 -4800
WIRE 2656 -4720 2496 -4720
WIRE 2736 -4720 2736 -4800
WIRE 3184 -4720 2736 -4720
WIRE 3376 -4720 3184 -4720
WIRE 3616 -4720 3376 -4720
WIRE 3776 -4720 3616 -4720
WIRE 3920 -4720 3776 -4720
WIRE -1264 -4592 -1264 -4720
WIRE -1120 -4592 -1120 -4720
WIRE -960 -4592 -960 -4720
WIRE -720 -4592 -720 -4720
WIRE -528 -4592 -528 -4720
WIRE 448 -4592 448 -4720
WIRE 1184 -4592 1184 -4720
WIRE 1472 -4592 1472 -4720
WIRE 1616 -4592 1616 -4720
WIRE 1776 -4592 1776 -4720
WIRE 2016 -4592 2016 -4720
WIRE 2208 -4592 2208 -4720
WIRE 3184 -4592 3184 -4720
WIRE 3920 -4592 3920 -4720
WIRE 640 -4576 640 -4720
WIRE 880 -4576 880 -4720
WIRE 1040 -4576 1040 -4720
WIRE 3376 -4576 3376 -4720
WIRE 3616 -4576 3616 -4720
WIRE 3776 -4576 3776 -4720
WIRE -1264 -4384 -1264 -4512
WIRE -1120 -4384 -1120 -4528
WIRE -1120 -4384 -1264 -4384
WIRE -960 -4384 -960 -4528
WIRE -960 -4384 -1120 -4384
WIRE -720 -4384 -720 -4528
WIRE -720 -4384 -960 -4384
WIRE -528 -4384 -528 -4512
WIRE -528 -4384 -720 -4384
WIRE -80 -4384 -528 -4384
WIRE 160 -4384 0 -4384
WIRE 448 -4384 448 -4512
WIRE 448 -4384 240 -4384
WIRE 640 -4384 640 -4512
WIRE 640 -4384 448 -4384
WIRE 880 -4384 880 -4512
WIRE 880 -4384 640 -4384
WIRE 1040 -4384 1040 -4512
WIRE 1040 -4384 880 -4384
WIRE 1184 -4384 1184 -4512
WIRE 1184 -4384 1040 -4384
WIRE 1472 -4384 1472 -4512
WIRE 1616 -4384 1616 -4528
WIRE 1616 -4384 1472 -4384
WIRE 1776 -4384 1776 -4528
WIRE 1776 -4384 1616 -4384
WIRE 2016 -4384 2016 -4528
WIRE 2016 -4384 1776 -4384
WIRE 2208 -4384 2208 -4512
WIRE 2208 -4384 2016 -4384
WIRE 2656 -4384 2208 -4384
WIRE 2896 -4384 2736 -4384
WIRE 3184 -4384 3184 -4512
WIRE 3184 -4384 2976 -4384
WIRE 3376 -4384 3376 -4512
WIRE 3376 -4384 3184 -4384
WIRE 3616 -4384 3616 -4512
WIRE 3616 -4384 3376 -4384
WIRE 3776 -4384 3776 -4512
WIRE 3776 -4384 3616 -4384
WIRE 3920 -4384 3920 -4512
WIRE 3920 -4384 3776 -4384
WIRE -1120 -4304 -1264 -4304
WIRE -960 -4304 -1120 -4304
WIRE -720 -4304 -960 -4304
WIRE -528 -4304 -720 -4304
WIRE -320 -4304 -528 -4304
WIRE -80 -4304 -80 -4384
WIRE -80 -4304 -240 -4304
WIRE 0 -4304 0 -4384
WIRE 448 -4304 0 -4304
WIRE 640 -4304 448 -4304
WIRE 880 -4304 640 -4304
WIRE 1040 -4304 880 -4304
WIRE 1184 -4304 1040 -4304
WIRE 1616 -4304 1472 -4304
WIRE 1776 -4304 1616 -4304
WIRE 2016 -4304 1776 -4304
WIRE 2208 -4304 2016 -4304
WIRE 2416 -4304 2208 -4304
WIRE 2656 -4304 2656 -4384
WIRE 2656 -4304 2496 -4304
WIRE 2736 -4304 2736 -4384
WIRE 3184 -4304 2736 -4304
WIRE 3376 -4304 3184 -4304
WIRE 3616 -4304 3376 -4304
WIRE 3776 -4304 3616 -4304
WIRE 3920 -4304 3776 -4304
WIRE -1264 -4176 -1264 -4304
WIRE -1120 -4176 -1120 -4304
WIRE -960 -4176 -960 -4304
WIRE -720 -4176 -720 -4304
WIRE -528 -4176 -528 -4304
WIRE 448 -4176 448 -4304
WIRE 1184 -4176 1184 -4304
WIRE 1472 -4176 1472 -4304
WIRE 1616 -4176 1616 -4304
WIRE 1776 -4176 1776 -4304
WIRE 2016 -4176 2016 -4304
WIRE 2208 -4176 2208 -4304
WIRE 3184 -4176 3184 -4304
WIRE 3920 -4176 3920 -4304
WIRE 640 -4160 640 -4304
WIRE 880 -4160 880 -4304
WIRE 1040 -4160 1040 -4304
WIRE 3376 -4160 3376 -4304
WIRE 3616 -4160 3616 -4304
WIRE 3776 -4160 3776 -4304
WIRE -1264 -3968 -1264 -4096
WIRE -1120 -3968 -1120 -4112
WIRE -1120 -3968 -1264 -3968
WIRE -960 -3968 -960 -4112
WIRE -960 -3968 -1120 -3968
WIRE -720 -3968 -720 -4112
WIRE -720 -3968 -960 -3968
WIRE -528 -3968 -528 -4096
WIRE -528 -3968 -720 -3968
WIRE -80 -3968 -528 -3968
WIRE 160 -3968 0 -3968
WIRE 448 -3968 448 -4096
WIRE 448 -3968 240 -3968
WIRE 640 -3968 640 -4096
WIRE 640 -3968 448 -3968
WIRE 880 -3968 880 -4096
WIRE 880 -3968 640 -3968
WIRE 1040 -3968 1040 -4096
WIRE 1040 -3968 880 -3968
WIRE 1184 -3968 1184 -4096
WIRE 1184 -3968 1040 -3968
WIRE 1472 -3968 1472 -4096
WIRE 1616 -3968 1616 -4112
WIRE 1616 -3968 1472 -3968
WIRE 1776 -3968 1776 -4112
WIRE 1776 -3968 1616 -3968
WIRE 2016 -3968 2016 -4112
WIRE 2016 -3968 1776 -3968
WIRE 2208 -3968 2208 -4096
WIRE 2208 -3968 2016 -3968
WIRE 2656 -3968 2208 -3968
WIRE 2896 -3968 2736 -3968
WIRE 3184 -3968 3184 -4096
WIRE 3184 -3968 2976 -3968
WIRE 3376 -3968 3376 -4096
WIRE 3376 -3968 3184 -3968
WIRE 3616 -3968 3616 -4096
WIRE 3616 -3968 3376 -3968
WIRE 3776 -3968 3776 -4096
WIRE 3776 -3968 3616 -3968
WIRE 3920 -3968 3920 -4096
WIRE 3920 -3968 3776 -3968
WIRE -1120 -3888 -1264 -3888
WIRE -960 -3888 -1120 -3888
WIRE -720 -3888 -960 -3888
WIRE -528 -3888 -720 -3888
WIRE -320 -3888 -528 -3888
WIRE -80 -3888 -80 -3968
WIRE -80 -3888 -240 -3888
WIRE 0 -3888 0 -3968
WIRE 448 -3888 0 -3888
WIRE 640 -3888 448 -3888
WIRE 880 -3888 640 -3888
WIRE 1040 -3888 880 -3888
WIRE 1184 -3888 1040 -3888
WIRE 1616 -3888 1472 -3888
WIRE 1776 -3888 1616 -3888
WIRE 2016 -3888 1776 -3888
WIRE 2208 -3888 2016 -3888
WIRE 2416 -3888 2208 -3888
WIRE 2656 -3888 2656 -3968
WIRE 2656 -3888 2496 -3888
WIRE 2736 -3888 2736 -3968
WIRE 3184 -3888 2736 -3888
WIRE 3376 -3888 3184 -3888
WIRE 3616 -3888 3376 -3888
WIRE 3776 -3888 3616 -3888
WIRE 3920 -3888 3776 -3888
WIRE -1264 -3760 -1264 -3888
WIRE -1120 -3760 -1120 -3888
WIRE -960 -3760 -960 -3888
WIRE -720 -3760 -720 -3888
WIRE -528 -3760 -528 -3888
WIRE 448 -3760 448 -3888
WIRE 1184 -3760 1184 -3888
WIRE 1472 -3760 1472 -3888
WIRE 1616 -3760 1616 -3888
WIRE 1776 -3760 1776 -3888
WIRE 2016 -3760 2016 -3888
WIRE 2208 -3760 2208 -3888
WIRE 3184 -3760 3184 -3888
WIRE 3920 -3760 3920 -3888
WIRE 640 -3744 640 -3888
WIRE 880 -3744 880 -3888
WIRE 1040 -3744 1040 -3888
WIRE 3376 -3744 3376 -3888
WIRE 3616 -3744 3616 -3888
WIRE 3776 -3744 3776 -3888
WIRE -1264 -3552 -1264 -3680
WIRE -1120 -3552 -1120 -3696
WIRE -1120 -3552 -1264 -3552
WIRE -960 -3552 -960 -3696
WIRE -960 -3552 -1120 -3552
WIRE -720 -3552 -720 -3696
WIRE -720 -3552 -960 -3552
WIRE -528 -3552 -528 -3680
WIRE -528 -3552 -720 -3552
WIRE -80 -3552 -528 -3552
WIRE 160 -3552 0 -3552
WIRE 448 -3552 448 -3680
WIRE 448 -3552 240 -3552
WIRE 640 -3552 640 -3680
WIRE 640 -3552 448 -3552
WIRE 880 -3552 880 -3680
WIRE 880 -3552 640 -3552
WIRE 1040 -3552 1040 -3680
WIRE 1040 -3552 880 -3552
WIRE 1184 -3552 1184 -3680
WIRE 1184 -3552 1040 -3552
WIRE 1472 -3552 1472 -3680
WIRE 1616 -3552 1616 -3696
WIRE 1616 -3552 1472 -3552
WIRE 1776 -3552 1776 -3696
WIRE 1776 -3552 1616 -3552
WIRE 2016 -3552 2016 -3696
WIRE 2016 -3552 1776 -3552
WIRE 2208 -3552 2208 -3680
WIRE 2208 -3552 2016 -3552
WIRE 2656 -3552 2208 -3552
WIRE 2896 -3552 2736 -3552
WIRE 3184 -3552 3184 -3680
WIRE 3184 -3552 2976 -3552
WIRE 3376 -3552 3376 -3680
WIRE 3376 -3552 3184 -3552
WIRE 3616 -3552 3616 -3680
WIRE 3616 -3552 3376 -3552
WIRE 3776 -3552 3776 -3680
WIRE 3776 -3552 3616 -3552
WIRE 3920 -3552 3920 -3680
WIRE 3920 -3552 3776 -3552
WIRE -1120 -3472 -1264 -3472
WIRE -960 -3472 -1120 -3472
WIRE -720 -3472 -960 -3472
WIRE -528 -3472 -720 -3472
WIRE -320 -3472 -528 -3472
WIRE -80 -3472 -80 -3552
WIRE -80 -3472 -240 -3472
WIRE 0 -3472 0 -3552
WIRE 448 -3472 0 -3472
WIRE 640 -3472 448 -3472
WIRE 880 -3472 640 -3472
WIRE 1040 -3472 880 -3472
WIRE 1184 -3472 1040 -3472
WIRE 1616 -3472 1472 -3472
WIRE 1776 -3472 1616 -3472
WIRE 2016 -3472 1776 -3472
WIRE 2208 -3472 2016 -3472
WIRE 2416 -3472 2208 -3472
WIRE 2656 -3472 2656 -3552
WIRE 2656 -3472 2496 -3472
WIRE 2736 -3472 2736 -3552
WIRE 3184 -3472 2736 -3472
WIRE 3376 -3472 3184 -3472
WIRE 3616 -3472 3376 -3472
WIRE 3776 -3472 3616 -3472
WIRE 3920 -3472 3776 -3472
WIRE -1264 -3344 -1264 -3472
WIRE -1120 -3344 -1120 -3472
WIRE -960 -3344 -960 -3472
WIRE -720 -3344 -720 -3472
WIRE -528 -3344 -528 -3472
WIRE 448 -3344 448 -3472
WIRE 1184 -3344 1184 -3472
WIRE 1472 -3344 1472 -3472
WIRE 1616 -3344 1616 -3472
WIRE 1776 -3344 1776 -3472
WIRE 2016 -3344 2016 -3472
WIRE 2208 -3344 2208 -3472
WIRE 3184 -3344 3184 -3472
WIRE 3920 -3344 3920 -3472
WIRE 640 -3328 640 -3472
WIRE 880 -3328 880 -3472
WIRE 1040 -3328 1040 -3472
WIRE 3376 -3328 3376 -3472
WIRE 3616 -3328 3616 -3472
WIRE 3776 -3328 3776 -3472
WIRE -1264 -3136 -1264 -3264
WIRE -1120 -3136 -1120 -3280
WIRE -1120 -3136 -1264 -3136
WIRE -960 -3136 -960 -3280
WIRE -960 -3136 -1120 -3136
WIRE -720 -3136 -720 -3280
WIRE -720 -3136 -960 -3136
WIRE -528 -3136 -528 -3264
WIRE -528 -3136 -720 -3136
WIRE -80 -3136 -528 -3136
WIRE 160 -3136 0 -3136
WIRE 448 -3136 448 -3264
WIRE 448 -3136 240 -3136
WIRE 640 -3136 640 -3264
WIRE 640 -3136 448 -3136
WIRE 880 -3136 880 -3264
WIRE 880 -3136 640 -3136
WIRE 1040 -3136 1040 -3264
WIRE 1040 -3136 880 -3136
WIRE 1184 -3136 1184 -3264
WIRE 1184 -3136 1040 -3136
WIRE 1472 -3136 1472 -3264
WIRE 1616 -3136 1616 -3280
WIRE 1616 -3136 1472 -3136
WIRE 1776 -3136 1776 -3280
WIRE 1776 -3136 1616 -3136
WIRE 2016 -3136 2016 -3280
WIRE 2016 -3136 1776 -3136
WIRE 2208 -3136 2208 -3264
WIRE 2208 -3136 2016 -3136
WIRE 2656 -3136 2208 -3136
WIRE 2896 -3136 2736 -3136
WIRE 3184 -3136 3184 -3264
WIRE 3184 -3136 2976 -3136
WIRE 3376 -3136 3376 -3264
WIRE 3376 -3136 3184 -3136
WIRE 3616 -3136 3616 -3264
WIRE 3616 -3136 3376 -3136
WIRE 3776 -3136 3776 -3264
WIRE 3776 -3136 3616 -3136
WIRE 3920 -3136 3920 -3264
WIRE 3920 -3136 3776 -3136
WIRE -1120 -3056 -1264 -3056
WIRE -960 -3056 -1120 -3056
WIRE -720 -3056 -960 -3056
WIRE -528 -3056 -720 -3056
WIRE -320 -3056 -528 -3056
WIRE -80 -3056 -80 -3136
WIRE -80 -3056 -240 -3056
WIRE 0 -3056 0 -3136
WIRE 448 -3056 0 -3056
WIRE 640 -3056 448 -3056
WIRE 880 -3056 640 -3056
WIRE 1040 -3056 880 -3056
WIRE 1184 -3056 1040 -3056
WIRE 1616 -3056 1472 -3056
WIRE 1776 -3056 1616 -3056
WIRE 2016 -3056 1776 -3056
WIRE 2208 -3056 2016 -3056
WIRE 2416 -3056 2208 -3056
WIRE 2656 -3056 2656 -3136
WIRE 2656 -3056 2496 -3056
WIRE 2736 -3056 2736 -3136
WIRE 3184 -3056 2736 -3056
WIRE 3376 -3056 3184 -3056
WIRE 3616 -3056 3376 -3056
WIRE 3776 -3056 3616 -3056
WIRE 3920 -3056 3776 -3056
WIRE -1264 -2928 -1264 -3056
WIRE -1120 -2928 -1120 -3056
WIRE -960 -2928 -960 -3056
WIRE -720 -2928 -720 -3056
WIRE -528 -2928 -528 -3056
WIRE 448 -2928 448 -3056
WIRE 1184 -2928 1184 -3056
WIRE 1472 -2928 1472 -3056
WIRE 1616 -2928 1616 -3056
WIRE 1776 -2928 1776 -3056
WIRE 2016 -2928 2016 -3056
WIRE 2208 -2928 2208 -3056
WIRE 3184 -2928 3184 -3056
WIRE 3920 -2928 3920 -3056
WIRE 640 -2912 640 -3056
WIRE 880 -2912 880 -3056
WIRE 1040 -2912 1040 -3056
WIRE 3376 -2912 3376 -3056
WIRE 3616 -2912 3616 -3056
WIRE 3776 -2912 3776 -3056
WIRE -1264 -2720 -1264 -2848
WIRE -1120 -2720 -1120 -2864
WIRE -1120 -2720 -1264 -2720
WIRE -960 -2720 -960 -2864
WIRE -960 -2720 -1120 -2720
WIRE -720 -2720 -720 -2864
WIRE -720 -2720 -960 -2720
WIRE -528 -2720 -528 -2848
WIRE -528 -2720 -720 -2720
WIRE -80 -2720 -528 -2720
WIRE 160 -2720 0 -2720
WIRE 448 -2720 448 -2848
WIRE 448 -2720 240 -2720
WIRE 640 -2720 640 -2848
WIRE 640 -2720 448 -2720
WIRE 880 -2720 880 -2848
WIRE 880 -2720 640 -2720
WIRE 1040 -2720 1040 -2848
WIRE 1040 -2720 880 -2720
WIRE 1184 -2720 1184 -2848
WIRE 1184 -2720 1040 -2720
WIRE 1472 -2720 1472 -2848
WIRE 1616 -2720 1616 -2864
WIRE 1616 -2720 1472 -2720
WIRE 1776 -2720 1776 -2864
WIRE 1776 -2720 1616 -2720
WIRE 2016 -2720 2016 -2864