Version 4
SHEET 1 1588 684
WIRE -672 -304 -736 -304
WIRE -496 -304 -528 -304
WIRE -320 -304 -352 -304
WIRE -144 -304 -176 -304
WIRE 32 -304 0 -304
WIRE 240 -304 176 -304
WIRE 384 -304 240 -304
WIRE 384 -288 384 -304
WIRE 384 -288 336 -288
WIRE 576 -288 384 -288
WIRE 1152 -288 1152 -320
WIRE 240 -256 240 -304
WIRE 576 -224 576 -288
WIRE 336 -192 336 -208
WIRE -736 -176 -736 -304
WIRE -672 -176 -736 -176
WIRE -496 -176 -528 -176
WIRE -320 -176 -352 -176
WIRE -144 -176 -176 -176
WIRE 32 -176 0 -176
WIRE 208 -176 176 -176
WIRE 1152 -128 1152 -208
WIRE 1152 -128 1120 -128
WIRE 1184 -128 1152 -128
WIRE 1200 -128 1184 -128
WIRE -672 -96 -736 -96
WIRE -496 -96 -528 -96
WIRE -320 -96 -352 -96
WIRE -144 -96 -176 -96
WIRE 32 -96 0 -96
WIRE 208 -96 208 -176
WIRE 208 -96 176 -96
WIRE 336 -96 336 -112
WIRE 464 -96 336 -96
WIRE 336 -80 336 -96
WIRE 464 -80 464 -96
WIRE 1120 0 1120 -64
WIRE 1120 0 1056 0
WIRE 1200 0 1200 -48
WIRE 1200 0 1120 0
WIRE 1280 0 1200 0
WIRE 1344 0 1280 0
WIRE 1504 0 1424 0
WIRE 336 16 336 0
WIRE 464 16 464 -16
WIRE 464 16 336 16
WIRE 560 16 464 16
WIRE 576 16 576 -160
WIRE 576 16 560 16
WIRE -736 32 -736 -96
WIRE -688 32 -736 32
WIRE -672 32 -688 32
WIRE -512 32 -528 32
WIRE -496 32 -512 32
WIRE -320 32 -352 32
WIRE -144 32 -176 32
WIRE 32 32 0 32
WIRE 336 32 336 16
WIRE 336 32 176 32
WIRE 1200 64 1200 0
WIRE 560 80 560 16
WIRE 1120 80 1120 0
WIRE -688 144 -688 32
WIRE -608 144 -688 144
WIRE -512 144 -512 32
WIRE 1152 144 1120 144
WIRE 1200 144 1152 144
WIRE 1152 192 1152 144
WIRE -688 256 -688 144
WIRE -672 256 -688 256
WIRE -592 256 -592 192
FLAG 560 80 SIGNAL
IOPIN 560 80 Out
FLAG 240 -256 0
FLAG 1504 0 0
FLAG 1280 0 RECEIVER
FLAG 1152 192 0
FLAG 1184 -128 3.3V
FLAG 1152 -320 0
FLAG 912 0 SIGNAL
IOPIN 912 0 In
SYMBOL jacModule 112 -304 R180
SYMATTR InstName X1
SYMBOL jacModule -64 -304 R180
SYMATTR InstName X2
SYMBOL jacModule -240 -304 R180
SYMATTR InstName X3
SYMBOL jacModule -416 -304 R180
SYMATTR InstName X4
SYMBOL jacModule -592 -304 R180
SYMATTR InstName X5
SYMBOL jacModule -608 -176 R0
SYMATTR InstName X6
SYMBOL jacModule -432 -176 R0
SYMATTR InstName X7
SYMBOL jacModule -256 -176 R0
SYMATTR InstName X8
SYMBOL jacModule -80 -176 R0
SYMATTR InstName X9
SYMBOL jacModule 96 -176 R0
SYMATTR InstName X10
SYMBOL jacModule 112 -96 R180
SYMATTR InstName X11
SYMBOL jacModule -64 -96 R180
SYMATTR InstName X12
SYMBOL jacModule -240 -96 R180
SYMATTR InstName X13
SYMBOL jacModule -416 -96 R180
SYMATTR InstName X14
SYMBOL jacModule -592 -96 R180
SYMATTR InstName X15
SYMBOL jacModule -608 32 R0
SYMATTR InstName X16
SYMBOL jacModule -432 32 R0
SYMATTR InstName X17
SYMBOL jacModule -256 32 R0
SYMATTR InstName X18
SYMBOL jacModule -80 32 R0
SYMATTR InstName X19
SYMBOL jacModule 96 32 R0
SYMATTR InstName X20
SYMBOL cap 592 -160 R180
WINDOW 0 24 56 Left 2
WINDOW 3 24 8 Left 2
SYMATTR InstName C1
SYMATTR Value 193.5p
SYMBOL ind 352 -192 R180
WINDOW 0 36 80 Left 2
WINDOW 3 36 40 Left 2
SYMATTR InstName L1
SYMATTR Value 25µ
SYMBOL res 352 -96 R180
WINDOW 0 36 76 Left 2
WINDOW 3 36 40 Left 2
SYMATTR InstName R1
SYMATTR Value 178m
SYMBOL nmos -512 192 M270
SYMATTR InstName M1
SYMATTR Value mos1
SYMBOL voltage -576 256 M270
WINDOW 0 -25 12 VLeft 2
WINDOW 3 -56 -272 VRight 2
WINDOW 123 0 0 Left 2
WINDOW 39 0 0 Left 2
SYMATTR InstName V1
SYMATTR Value PULSE(0 3.3 0 0 0 {Ton} {Tperiod})
SYMBOL res 320 -96 R0
SYMATTR InstName R2
SYMATTR Value {Rload}
SYMBOL cap 448 -80 R0
SYMATTR InstName C2
SYMATTR Value {Cload}
SYMBOL cap 976 -16 R90
WINDOW 0 0 32 VBottom 2
WINDOW 3 32 32 VTop 2
SYMATTR InstName C3
SYMATTR Value 100µ
SYMBOL res 1072 -16 R90
WINDOW 0 0 56 VBottom 2
WINDOW 3 32 56 VTop 2
SYMATTR InstName R3
SYMATTR Value 10k
SYMBOL zener 1136 -64 R180
WINDOW 0 24 64 Left 2
WINDOW 3 24 0 Left 2
SYMATTR InstName D1
SYMATTR Value diodePro4
SYMATTR Description Diode
SYMATTR Type diode
SYMBOL zener 1136 144 R180
WINDOW 0 24 64 Left 2
WINDOW 3 24 0 Left 2
SYMATTR InstName D2
SYMATTR Value diodePro4
SYMATTR Description Diode
SYMATTR Type diode
SYMBOL res 1184 -144 R0
SYMATTR InstName R4
SYMATTR Value 10k
SYMBOL res 1184 48 R0
SYMATTR InstName R5
SYMATTR Value 10k
SYMBOL res 1440 -16 R90
WINDOW 0 0 56 VBottom 2
WINDOW 3 32 56 VTop 2
SYMATTR InstName R6
SYMATTR Value 1e6
SYMBOL voltage 1152 -192 R180
WINDOW 0 24 96 Left 2
WINDOW 3 24 16 Left 2
WINDOW 123 0 0 Left 2
WINDOW 39 0 0 Left 2
SYMATTR InstName V2
SYMATTR Value 3.3
TEXT 616 32 Left 2 !.tran 1m
TEXT -32 152 Left 2 !.param Rload = 1k
TEXT -32 128 Left 2 !.param Cload = 100u
TEXT -32 208 Left 2 !.model mos1 VDMOS(Ron=20m)
TEXT -1232 472 Left 2 ;.model mos1 VDMOS(Rg=3 Vto=1.7 Rd=8m Rs=6m Rb=10m Kp=70 Cgdmax=2.5n Cgdmin=.4n Cgs=2n Cjo=1n Is=80p Vds=100 Ron=20m Qg=40n)
TEXT -32 240 Left 2 !.model diodebp D
TEXT -24 272 Left 2 ;.step dec param Cload = 1u 100u 1 dec param Rload 10 100k 1
TEXT -24 312 Left 2 ;.step dec param Rload 10 100k 1
TEXT -24 344 Left 2 !.step dec param Cload = 1p 100u 1
TEXT -16 376 Left 2 !.param Ton = 0.5 * Tperiod
TEXT -16 408 Left 2 !.param Tperiod = 1e-4
TEXT 376 408 Left 2 ;.step dec param Tperiod = 1e-2 1e-5 1
TEXT -1224 504 Left 2 !.model diodePro4 D(Is=.88f Rs=.25 Cjo=175p M=.55 bv=2.7 Vj=.75 Isr=1.86n Nr=2 Ibv=20.254m Ibvl=1.96m Nbvl=15 Tbv1=-21.3u Vpk=60 type=Zener)
