Version 4
SHEET 1 880 748
WIRE -864 64 -944 64
WIRE -544 64 -720 64
WIRE -240 64 -400 64
WIRE 48 64 -96 64
WIRE 304 64 192 64
WIRE 752 64 448 64
WIRE 640 240 640 192
WIRE -944 256 -944 64
WIRE -864 256 -944 256
WIRE -544 256 -720 256
WIRE -240 256 -400 256
WIRE 48 256 -96 256
WIRE 304 256 192 256
WIRE 592 256 448 256
WIRE 784 336 784 272
WIRE -864 416 -944 416
WIRE -544 416 -720 416
WIRE -240 416 -400 416
WIRE 48 416 -96 416
WIRE 304 416 192 416
WIRE 592 416 592 256
WIRE 592 416 448 416
WIRE 784 480 784 416
WIRE -944 608 -944 416
WIRE -864 608 -944 608
WIRE -544 608 -720 608
WIRE -240 608 -400 608
WIRE 48 608 -96 608
WIRE 304 608 192 608
WIRE 752 608 448 608
FLAG 752 64 IN
IOPIN 752 64 In
FLAG 752 608 OUT
IOPIN 752 608 Out
FLAG 784 272 IN
IOPIN 784 272 Out
FLAG 784 480 OUT
IOPIN 784 480 In
FLAG 640 192 IN
IOPIN 640 192 Out
FLAG 640 240 0
SYMBOL jacModuleNoD 384 64 R180
SYMATTR InstName X1
SYMATTR SpiceLine Ifail = {Ifailure}
SYMBOL jacModuleNoD 368 256 R0
SYMATTR InstName X6
SYMBOL jacModuleNoD 384 416 R180
SYMATTR InstName X7
SYMBOL jacModuleNoD 368 608 R0
SYMATTR InstName X8
SYMBOL jacModuleNoD 128 64 R180
SYMATTR InstName X10
SYMBOL jacModuleNoD 112 256 R0
SYMATTR InstName X11
SYMBOL jacModuleNoD 128 416 R180
SYMATTR InstName X12
SYMBOL jacModuleNoD 112 608 R0
SYMATTR InstName X13
SYMBOL jacModuleNoD -160 64 R180
SYMATTR InstName X14
SYMBOL jacModuleNoD -176 256 R0
SYMATTR InstName X15
SYMBOL jacModuleNoD -160 416 R180
SYMATTR InstName X16
SYMBOL jacModuleNoD -176 608 R0
SYMATTR InstName X17
SYMBOL jacModuleNoD -464 64 R180
SYMATTR InstName X18
SYMBOL jacModuleNoD -480 256 R0
SYMATTR InstName X19
SYMBOL jacModuleNoD -464 416 R180
SYMATTR InstName X20
SYMBOL jacModuleNoD -480 608 R0
SYMATTR InstName X21
SYMBOL jacModuleNoD -784 64 R180
SYMATTR InstName X22
SYMBOL jacModuleNoD -800 256 R0
SYMATTR InstName X23
SYMBOL jacModuleNoD -784 416 R180
SYMATTR InstName X24
SYMBOL jacModuleNoD -800 608 R0
SYMATTR InstName X25
SYMBOL res 800 432 R180
WINDOW 0 36 76 Left 2
WINDOW 3 36 40 Left 2
SYMATTR InstName R1
SYMATTR Value {Rload}
TEXT -952 712 Left 2 ;.dc dec param Rload 1e-20 1k 50 param Ifailure 0.5 5.889 2
TEXT -952 736 Left 2 !.dc dec param Rload 1e-10 1k 20 param Ifailure 0.5 5.889 2
